      1 'GENROU' 1     6.5000      0.60000E-01  0.20000      0.50000E-01
          4.0000       0.0000       1.8000       1.7500      0.60000
         0.80000      0.23000      0.15000      0.90000E-01  0.38000      /
      1 'EXDC2 ' 1    0.20000E-01   20.000      0.20000E-01   1.0000
          1.0000       5.2000      -4.1600       1.0000      0.83000
         0.75400E-01   1.2460       0.0000       1.0000       0.2000
          3.0000       1.0000    /
      1 'TGOV1'  1    0.50000E-01  0.50000E-01   1.0500      0.30000
          1.0000       2.1000       0.0000      /
      2 'GENROU' 1     6.5000      0.60000E-01  0.20000      0.50000E-01
          6.5000       0.0000       1.8000       1.7500      0.60000
         0.80000      0.28000      0.15000      0.90000E-01  0.38000      /
      2 'EXST1'  1    0.20000E-01   99.000      -99.000       0.0000
         0.20000E-01   50.000      0.20000E-01   9999.0      -9999.0
          0.0000      0.10000E-01   1.0000    /
      2 'IEEEG1' 1          0           0        20.000      0.10000
          0.0000      0.20000       1.0000      -1.0000      0.95000
          0.0000      0.10000       0.0000       0.0000       0.0000
          0.0000       0.0000       0.0000      0.30000       0.0000
          8.7200      0.70000       0.0000    /
      2 'ST2CUT' 1          1            0            0            0
          5.0000       0.0000      0.29000E-01   0.0000       2.4000
          2.4000      0.14400      0.40000E-01  0.37700      0.10500
          0.0000       0.0000      0.50000E-01 -0.50000E-01   0.0000
          0.0000      /
      3 'GENROU' 1     6.5000      0.60000E-01  0.20000      0.50000E-01
          5.0000       0.0000       1.8000       1.7500      0.60000
         0.80000      0.34000      0.15000      0.90000E-01  0.38000      /
      3 'ESST3A' 1    0.20000E-01  0.20000     -0.20000       8.0000
          1.0000       5.0000       20.000       0.0000       99.000
         -99.000       1.0000       3.6700      0.43500       5.4800
         0.10000E-01  0.98000E-02   3.8600       3.3300      0.40000
          99.000       0.0000    /
      3 'IEEEG1' 1          0           0        20.000      0.10000
          0.0000      0.20000       1.0000      -1.0000      0.95000
          0.0000      0.10000       0.0000       0.0000       0.0000
          0.0000       0.0000       0.0000      0.30000       0.0000
          8.7200      0.70000       0.0000    /
      3 'ST2CUT' 1          1            0            0            0
          10.000       0.0000      0.30000E-01   0.0000       30.000
          30.000      0.40000      0.50000E-01  0.40000      0.50000E-01
          0.0000       0.0000      0.40000E-01 -0.40000E-01   0.0000
          0.0000      /
      6 'GENROU' 1     6.5000      0.60000E-01  0.20000      0.50000E-01
          5.0000       0.0000       1.8000       1.7500      0.60000
         0.80000      0.28000      0.15000      0.90000E-01  0.38000      /
      6 'ESST3A' 1    0.20000E-01  0.20000     -0.20000       8.0000
          1.0000       5.0000       20.000       0.0000       99.000
         -99.000       1.0000       3.6700      0.43500       5.4800
         0.10000E-01  0.98000E-02   3.8600       3.3300      0.40000
          99.000       0.0000    /
      6 'TGOV1'  1    0.50000E-01  0.50000E-01   1.0500      0.30000
          1.0000       2.1000       0.0000      /
      6 'ST2CUT' 1          1            0            0            0
          10.000       0.0000       0.0000       0.0000       3.0000
          3.0000      0.15000      0.50000E-01  0.15000      0.50000E-01
         0.15000      0.50000E-01  0.50000E-01 -0.50000E-01   0.0000
          0.0000      /
      8 'GENROU' 1     6.5000      0.60000E-01  0.20000      0.50000E-01
          5.0000       0.0000       1.8000       1.7500      0.60000
         0.80000      0.34000      0.15000      0.90000E-01  0.38000      /
      8 'TGOV1'  1    0.50000E-01  0.50000E-01   1.0500      0.30000
          1.0000       2.1000       0.0000      /
      8 'EXST1'  1    0.20000E-01   99.000      -99.000       0.0000
         0.20000E-01   50.000      0.20000E-01   9999.0      -9999.0
          0.0000      0.10000E-01   1.0000    /

  Line  'Toggler'  Line_1  1.0 /
  Line  'Toggler'  Line_1  1.1 /