      1 'GENROU' 1     8.0000      0.30000E-01  0.40000      0.50000E-01
          6.5000       0.0000       1.8000       1.7000      0.30000
         0.55000      0.25000      0.60000E-01   0.0000       0.0000    /
      1 'EXDC2 ' 1    0.20000E-01   20.000      0.20000E-01   1.0000
          1.0000       5.2000      -4.1600       1.0000      0.83000
         0.75400E-01   1.2460       0.0000       0.0000       0.0000
          1.0000       1.0000    /
      1 'TGOV1'  1    0.50000E-01  0.49000       33.000      0.40000
          2.1000       7.0000       0.0000    /
      2 'GENROU' 1     8.0000      0.30000E-01  0.40000      0.50000E-01
          6.5000       0.0000       1.8000       1.7000      0.30000
         0.55000      0.25000      0.60000E-01   0.0000       0.0000    /
      2 'EXDC2 ' 1    0.20000E-01   20.000      0.20000E-01   1.0000
          1.0000       5.2000      -4.1600       1.0000      0.83000
         0.75400E-01   1.2460       0.0000       0.0000       0.0000
          1.0000       1.0000    /
      2 'TGOV1'  1    0.50000E-01  0.49000       33.000      0.40000
          2.1000       7.0000       0.0000    /
      3 'GENROU' 1     8.0000      0.30000E-01  0.40000      0.50000E-01
          6.1750       0.0000       1.8000       1.7000      0.30000
         0.55000      0.25000      0.60000E-01   0.0000       0.0000    /
      3 'EXDC2 ' 1    0.20000E-01   20.000      0.20000E-01   1.0000
          1.0000       5.2000      -4.1600       1.0000      0.83000
         0.75400E-01   1.2460       0.0000       0.0000       0.0000
          1.0000       1.0000    /
      3 'TGOV1'  1    0.50000E-01  0.49000       33.000      0.40000
          2.1000       7.0000       0.0000    /
      4 'GENROU' 1     8.0000      0.30000E-01  0.40000      0.50000E-01
          6.1750       0.0000       1.8000       1.7000      0.30000
         0.55000      0.25000      0.60000E-01   0.0000       0.0000    /
      4 'EXDC2 ' 1    0.20000E-01   20.000      0.20000E-01   1.0000
          1.0000       5.2000      -4.1600       1.0000      0.83000
         0.75400E-01   1.2460       0.0000       0.0000       0.0000
          1.0000       1.0000    /
      4 'TGOV1'  1    0.50000E-01  0.49000       33.000      0.40000
          2.1000       7.0000       0.0000    /
   Line 'Toggler' Line_8     2.0  /
