      1 'GENCLS' 1    13.0000  0.000000  /
      2 'GENCLS' 1    13.0000  0.000000  /
      3 'GENCLS' 1    12.3500  0.000000  /
      4 'GENCLS' 1    12.3500  0.000000  /
   Line 'Toggler' Line_8     2.0  /
