     21 'GENROU' 1     5.7000      0.30000E-01  0.35000      0.50000E-01
          4.6400       0.0000       1.9050       1.8075      0.36000
         0.36000      0.23270      0.20270       0.0000       0.0000    /
     22 'GENROU' 1     5.6900      0.30000E-01  0.35000      0.50000E-01
          4.0857       0.0000       1.8340       1.8060      0.30520
         0.30520      0.220955      0.200955       0.0000       0.0000    /
     23 'GENROU' 1     5.6000      0.30000E-01  0.35000      0.50000E-01
          2.4467       0.0000       1.7400       1.6800      0.24450
         0.24450      0.100799     0.090799   0.0000       0.0000    /
     23 'GENROU' 2     5.2000      0.30000E-01  0.35000      0.50000E-01
          6.2000       0.0000       2.1150       2.0400      0.54600
         0.54600      0.225511      0.205511       0.0000       0.0000    /
     24 'GENROU' 1     7.3000      0.30000E-01  0.35000      0.50000E-01
          4.3500       0.0000       2.0320       1.9280      0.38400
         0.38400      0.23780      0.20780       0.0000       0.0000    /
     25 'GENROU' 1     5.7000      0.30000E-01  0.35000      0.50000E-01
          4.0615       0.0000       1.9175       1.8980      0.31200
         0.31200      0.20930      0.19930       0.0000       0.0000    /
     26 'GENROU' 1     4.7900      0.30000E-01  0.35000      0.50000E-01
          3.8000       0.0000       1.8900       1.8450      0.52200
         0.52200      0.28874      0.20874       0.0000       0.0000    /
     27 'GENROU' 1     6.7000      0.30000E-01  0.35000      0.50000E-01
          4.0500       0.0000       1.7400       1.6800      0.33000
         0.33000      0.18450      0.10450       0.0000       0.0000    /
     36 'GENROU' 1     5.7000      0.30000E-01  0.35000      0.50000E-01
          4.6615       0.0000       1.9175       1.8590      0.52650
         0.52650      0.319930      0.30993       0.0000       0.0000    /
     42 'GENROU' 1     5.0000      0.30000E-01  0.35000      0.50000E-01
          4.7150       0.0000       1.2648       1.2108      0.23800
         0.23800      0.17800      0.10800       0.0000       0.0000    /
     47 'GENROU' 1     5.0000      0.30000E-01  0.35000      0.50000E-01
          3.3711       0.0000       1.3410      0.76950      0.49500
         0.49500      0.35190      0.30190       0.0000       0.0000    /
     48 'GENROU' 1     5.0000      0.30000E-01  0.35000      0.50000E-01
          3.0340       0.0000       1.4900      0.85500      0.55000
         0.55000      0.39100      0.30100       0.0000       0.0000    /
     50 'GENROU' 1     6.7000      0.30000E-01  0.35000      0.50000E-01
          4.9200       0.0000       1.3750       1.3050      0.39000
         0.39000      0.29500      0.20500       0.0000       0.0000    /
     51 'GENROU' 1     5.5000      0.30000E-01  0.35000      0.50000E-01
          14.307       0.0000      0.46545      0.44115      0.93750E-01
         0.93750E-01  0.61950E-01  0.60950E-01   0.0000       0.0000    /
     53 'GENCLS' 1     37.000       37.000    /
     54 'GENROU' 1     7.0000      0.30000E-01  0.35000      0.50000E-01
          7.8831       0.0000      0.85930      0.58500      0.36790
         0.36790      0.32500      0.30500       0.0000       0.0000    /
     54 'GENROU' 2     7.0000      0.30000E-01  0.35000      0.50000E-01
          7.8831       0.0000      0.85930      0.58500      0.36790
         0.36790      0.32500      0.30500       0.0000       0.0000    /
     55 'GENROU' 1     7.0000      0.30000E-01  0.35000      0.50000E-01
          4.9817       0.0000       1.2192      0.77160      0.43680
         0.43680      0.36240      0.30240       0.0000       0.0000    /
     56 'GENROU' 1     5.5000      0.30000E-01  0.35000      0.50000E-01
          4.3880       0.0000       1.9235       1.8485      0.35750
         0.35750      0.25750      0.20750       0.0000       0.0000    /
     57 'GENROU' 1     5.6000      0.30000E-01  0.35000      0.50000E-01
          5.0600       0.0000       1.1805       1.1294      0.24465
         0.24465      0.16240      0.10240       0.0000       0.0000    /
     60 'GENROU' 1     5.5000      0.30000E-01  0.35000      0.50000E-01
          4.8311       0.0000       1.7334       1.6673      0.32490
         0.32490      0.23535      0.20535       0.0000       0.0000    /
     61 'GENROU' 1     5.0000      0.30000E-01  0.35000      0.50000E-01
          4.1600       0.0000       1.2768       1.2228      0.24960
         0.24960      0.18940      0.10940       0.0000       0.0000    /
     65 'GENCLS' 1     10.710       10.710    /
     68 'GENCLS' 1     3.7700       3.7700    /
     71 'GENCLS' 1     8.5000       8.5000    /
     72 'GENCLS' 1     11.770       11.770    /
     78 'GENCLS' 1     1000.0       1000.0    /
     79 'GENROU' 1     8.0000      0.30000E-01  0.35000      0.50000E-01
          4.1739       0.0000       2.0010       1.9550      0.36800
         0.36800      0.32200      0.30200       0.0000       0.0000    /
     80 'GENROU' 1     4.0000      0.30000E-01  0.35000      0.50000E-01
          2.9750       0.0000       1.7040       1.5440      0.37600
         0.37600      0.20000      0.19000       0.0000       0.0000    /
     82 'GENROU' 1     5.9000      0.30000E-01  0.35000      0.50000E-01
          3.9200       0.0000       1.5450       1.5100      0.31000
         0.31000      0.25000      0.20000       0.0000       0.0000    /
     86 'GENROU' 1     6.0000      0.30000E-01  0.35000      0.50000E-01
          4.1579       0.0000       1.9000       1.5060      0.38000
         0.38000       0.2109      0.20090       0.0000       0.0000    /
     98 'GENROU' 1     4.6000      0.30000E-01  0.35000      0.50000E-01
          11.077       0.0000       0.4550      0.32500      0.143
          0.143        0.0975       0.0775       0.0000       0.0000    /
    101 'GENROU' 1     5.5000      0.30000E-01  0.35000      0.50000E-01
          4.0740       0.0000       1.0125       0.648       0.351
         0.35100       0.2295       0.2095       0.0000       0.0000    /
     91 'GENCLS' 1     98.700       98.700    /
     92 'GENCLS' 1     27.000       27.000    /
     97 'GENCLS' 1     36.000       36.000    /
    115 'GENCLS' 1     46.000       46.000    /
    119 'GENCLS' 1     30.000       30.000    /
    120 'GENCLS' 1     1000.0       1000.0    /
    121 'GENCLS' 1     66.000       66.000    /
    122 'GENCLS' 1     190.00       190.00    /
    123 'GENCLS' 1     33.000       33.000    /
    130 'GENCLS' 1     24.000       24.000    /
    133 'GENCLS' 1     1000.0       1000.0    /
    134 'GENCLS' 1     44.000       44.000    /
    135 'GENCLS' 1     115.00       115.00    /
    137 'GENCLS' 1     3.5000       3.5000    /
    139 'GENCLS' 1     1000.0       1000.0    /

     21 'TGOV1'  1    0.30000E-01  0.50000       1.0000      0.30000
          6.0000       6.0000       0.0000    /
     22 'TGOV1'  1    0.30000E-01  0.50000       1.0000      0.30000
          6.0000       6.0000       0.0000    /
     23 'TGOV1'  1    0.30000E-01  0.50000       1.0000      0.30000
          6.0000       6.0000       0.0000    /
     23 'TGOV1'  2    0.30000E-01  0.50000       1.0000      0.30000
          6.0000       6.0000       0.0000    /
     24 'TGOV1'  1    0.30000E-01  0.50000       1.0000      0.30000
          6.0000       6.0000       0.0000    /
     25 'TGOV1'  1    0.30000E-01  0.50000       1.0000      0.30000
          6.0000       6.0000       0.0000    /
     26 'TGOV1'  1    0.30000E-01  0.50000       1.0000      0.30000
          6.0000       6.0000       0.0000    /
     27 'TGOV1'  1    0.30000E-01  0.50000       1.0000      0.30000
          6.0000       6.0000       0.0000    /
     36 'TGOV1'  1    0.50000E-01  10.0000       1.0000      0.30000
          6.0000       6.0000       0.0000    /
     42 'TGOV1'  1    0.30000E-01  0.50000       1.0000      0.30000
          6.0000       6.0000       0.0000    /
     47 'TGOV1'  1    0.30000E-01  0.50000       1.0000      0.30000
          6.0000       6.0000       0.0000    /
     48 'TGOV1'  1    0.30000E-01  0.50000       1.0000      0.30000
          6.0000       6.0000       0.0000    /
     50 'TGOV1'  1    0.30000E-01  0.50000       1.0000      0.30000
          6.0000       6.0000       0.0000    /
     51 'TGOV1'  1    0.30000E-01  0.50000       1.0000      0.30000
          6.0000       6.0000       0.0000    /
     54 'TGOV1'  1    0.30000E-01  0.50000       1.0000      0.30000
          6.0000       6.0000       0.0000    /
     54 'TGOV1'  2    0.30000E-01  0.50000       1.0000      0.30000
          6.0000       6.0000       0.0000    /
     55 'TGOV1'  1    0.30000E-01  0.50000       1.0000      0.30000
          6.0000       6.0000       0.0000    /
     56 'TGOV1'  1    0.30000E-01  0.50000       1.0000      0.30000
          6.0000       6.0000       0.0000    /
     57 'TGOV1'  1    0.30000E-01  0.50000       1.0000      0.30000
          6.0000       6.0000       0.0000    /
     60 'TGOV1'  1    0.30000E-01  0.50000       1.0000      0.30000
          6.0000       6.0000       0.0000    /
     61 'TGOV1'  1    0.30000E-01  0.50000       1.0000      0.30000
          6.0000       6.0000       0.0000    /
     79 'TGOV1'  1    0.50000E-01  10.0000       1.0000      0.30000
          6.0000       6.0000       0.0000    /
     80 'TGOV1'  1    0.30000E-01  0.50000       1.0000      0.30000
          6.0000       6.0000       0.0000    /
     82 'TGOV1'  1    0.30000E-01  0.50000       1.0000      0.30000
          6.0000       6.0000       0.0000    /
     86 'TGOV1'  1    0.50000E-01  10.0000       1.0000      0.30000
          6.0000       6.0000       0.0000    /
     98 'TGOV1'  1    0.30000E-01  0.50000       1.0000      0.30000
          6.0000       6.0000       0.0000    /
     101 'TGOV1'  1    0.30000E-01  0.50000       1.0000      0.30000
          6.0000       6.0000       0.0000    /
     119 'TGOV1'  1    0.50000E-01  10.0000       100.0000      0.30000
          6.0000       6.0000       0.0000    /
     133 'TGOV1'  1    0.50000E-01  10.0000       100.0000      0.30000
          6.0000       6.0000       0.0000    /

     21 'IEEEX1' 1     0.0000       50.000      0.60000E-01   0.0000
          0.0000       1.0000      -1.0000     -0.20000E-01  0.50000
         0.80000E-01   1.0000       0.0000       2.0000      0.16000E-02
          3.0000       1.7300    /
     22 'IEEEX1' 1     0.0000       400.00      0.20000E-01   0.0000
          0.0000       7.3000      -7.3000       1.0000      0.79000
         0.30000E-01   1.0000       0.0000       2.0000      0.16000E-02
          3.0000       1.4500    /
     23 'IEEEX1' 1     0.0000       50.000      0.60000E-01   0.0000
          0.0000       1.0000      -1.0000     -0.50000E-01  0.50000
         0.80000E-01   1.0000       0.0000       2.0000      0.16000E-02
          3.0000       1.7300    /
     23 'IEEEX1' 2     0.0000       50.000      0.60000E-01   0.0000
          0.0000       1.0000      -1.0000     -0.50000E-01  0.50000
         0.80000E-01   1.0000       0.0000       2.0000      0.16000E-02
          3.0000       1.7300    /
     24 'IEEEX1' 1     0.0000       50.000      0.20000E-01   0.0000
          0.0000       1.0000      -1.0000     -0.40000E-01  0.47000
         0.60000E-01   1.2500       0.0000       2.0000      0.16000E-02
          3.0000       1.7300    /
     25 'IEEEX1' 1     0.0000       400.00      0.20000E-01   0.0000
          0.0000       6.5000      -6.5000       1.0000      0.73000
         0.30000E-01   1.0000       0.0000       2.0000      0.39000E-02
          3.0000       1.5550    /
     26 'IEEEX1' 1     0.0000       200.00      0.20000E-01   0.0000
          0.0000       4.2600      -4.2600       1.0000       1.4000
         0.30000E-01   1.0000       0.0000       2.0000      0.16000E-02
          3.0000       1.4650    /
     27 'IEEEX1' 1     0.0000       50.000      0.20000E-01   0.0000
          0.0000       1.0000      -1.0000     -0.50000E-01  0.53000
         0.33200E-01   1.2600       0.0000       2.0000      0.16000E-02
          3.0000       1.4650    /
     36 'IEEEX1' 1     0.0000       62.000      0.50000E-01   0.0000
          0.0000       1.0000      -1.0000     -0.50000E-01  0.40500
         0.11400      0.50000       0.0000       2.0000      0.16000E-02
          3.0000       1.7300    /
     42 'IEEEX1' 1     0.0000       25.000      0.20000       0.0000
          0.0000       1.0000      -1.0000     -0.62000E-01  0.50000
         0.65710      0.35000       0.0000       2.0000      0.16000E-02
          3.0000       2.0250    /
     47 'IEEEX1' 1     0.0000       16.500      0.20000       0.0000
          0.0000       1.0000      -1.0000     -0.37000E-01  0.27000
         0.60000E-01   1.0000       0.0000       2.0000      0.58000E-02
          3.0000       1.1500    /
     48 'IEEEX1' 1     0.0000       16.500      0.20000       0.0000
          0.0000       1.0000      -1.0000     -0.37000E-01  0.27000
         0.60000E-01   1.0000       0.0000       2.0000      0.58000E-02
          3.0000       1.1500    /
     50 'IEEEX1' 1     0.0000       50.000      0.60000E-01   0.0000
          0.0000       1.0000      -1.0000     -0.46000E-01  0.50000
         0.80000E-01   1.0000       0.0000       2.0000      0.16000E-02
          3.0000       1.5250    /
     51 'IEEEX1' 1     0.0000       23.100      0.20000       0.0000
          0.0000       1.0000      -1.0000     -0.44000E-01  0.50000
         0.71430E-01  0.35000       0.0000       2.0000      0.16000E-02
          3.0000       1.4500    /
     54 'IEEEX1' 1     0.0000       50.000      0.50000E-01   0.0000
          0.0000       5.0000      -5.0000       1.0000      0.40000
         0.80000E-01   1.0000       0.0000       2.0000      0.16000E-02
          3.0000       1.4500    /
     54 'IEEEX1' 2     0.0000       50.000      0.50000E-01   0.0000
          0.0000       5.0000      -5.0000       1.0000      0.40000
         0.80000E-01   1.0000       0.0000       2.0000      0.16000E-02
          3.0000       1.4500    /
     55 'IEEEX1' 1     0.0000       23.100      0.20000       0.0000
          0.0000       1.0000      -1.0000     -0.50000E-01  0.50000
         0.71430E-01  0.35000       0.0000       2.0000      0.16000E-02
          3.0000       1.4500    /
     56 'IEEEX1' 1     0.0000       25.000      0.20000       0.0000
          0.0000       1.0000      -1.0000     -0.50000E-01  0.50000
         0.65710E-01  0.35000       0.0000       2.0000      0.16000E-02
          3.0000       1.6670    /
     57 'IEEEX1' 1     0.0000       25.000      0.20000       0.0000
          0.0000       1.0000      -1.0000     -0.50000E-01  0.50000
         0.65710E-01  0.35000       0.0000       2.0000      0.16000E-02
          3.0000       2.0600    /
     60 'IEEEX1' 1     0.0000       25.000      0.20000       0.0000
          0.0000       1.0000      -1.0000     -0.50000E-01  0.50000
         0.65710      0.35000       0.0000       2.0000      0.16000E-02
          3.0000       1.6670    /
     61 'IEEEX1' 1     0.0000       25.000      0.20000       0.0000
          0.0000       1.0000      -1.0000     -0.62000E-01  0.50000
         0.65710      0.35000       0.0000       2.0000      0.16000E-02
          3.0000       2.0250    /
     79 'IEEEX1' 1     0.0000       50.000      0.60000E-01   0.0000
          0.0000       1.0000      -1.0000     -0.40000E-01  0.50000
         0.80000E-01   1.0000       0.0000       2.0000      0.16000E-02
          3.0000       1.4500    /
     80 'IEEEX1' 1     0.0000       25.000      0.20000       0.0000
          0.0000       1.0000      -1.0000     -0.50000E-01  0.50000
         0.65140      0.35000       0.0000       2.0000      0.16000E-02
          3.0000       1.4500    /
     82 'IEEEX1' 1     0.0000       50.000      0.60000E-01   0.0000
          0.0000       1.0000      -1.0000     -0.40000E-01  0.50000
         0.80000E-01   1.0000       0.0000       2.0000      0.16000E-02
          3.0000       1.4500    /


