		36 'GENCLS'  1     30.3000      10.3000 /
		21 'GENCLS'  1     34.8000      11.8000 /
		22 'GENCLS'  1     28.6000      9.6000 /
		23 'GENCLS'  1     25.9400      8.9400 /
		24 'GENCLS'  1     34.8000      11.8000 /
		25 'GENCLS'  1     26.4000      8.4000 /
		26 'GENCLS'  1      3.4200       1.4200 /
		27 'GENCLS'  1     24.3000      8.3000 /
		42 'GENCLS'  1     18.8600      6.8600 /
	    46 'GENCLS'  1      5.0000       1.7000 /
		47 'GENCLS'  1     15.1700      5.1700 /
		48 'GENCLS'  1     15.1700      5.1700 /
		50 'GENCLS'  1     34.4400      11.4400 /
		51 'GENCLS'  1     21.4600      7.4600 /
		53 'GENCLS'  1     37.0000      12.0000 /
		54 'GENCLS'  1    102.4800     34.4800 /
		55 'GENCLS'  1     59.7800      20.7800 /
		56 'GENCLS'  1     21.9400      7.9400 /
		57 'GENCLS'  1     17.7100      5.7100 /
		60 'GENCLS'  1     21.7400      7.7400 /
		61 'GENCLS'  1      8.3200       2.6200 /
		65 'GENCLS'  1     10.7100      3.5100 /
		68 'GENCLS'  1      3.7700       1.2700 /
		71 'GENCLS'  1      8.5000       2.8000 /
		72 'GENCLS'  1     11.7700      4.0700 /
		78 'GENCLS'  1   1000.0000    333.0000 /
		79 'GENCLS'  1     48.0000      16.0000 /
		80 'GENCLS'  1     23.8000      8.0000 /
		82 'GENCLS'  1     19.6000      6.5000 /
	   101 'GENCLS'  1     55.0000      18.0000 /
		86 'GENCLS'  1     79.0000      26.0000 /
		91 'GENCLS'  1     98.7000      32.7000 /
		92 'GENCLS'  1     27.0000      9.0000 /
		97 'GENCLS'  1     36.0000      12.0000 /
		98 'GENCLS'  1     72.0000      24.0000 /
	   115 'GENCLS'  1     46.0000      15.0000 /
	   119 'GENCLS'  1     30.0000      10.0000 /
	   120 'GENCLS'  1   1000.0000    333.0000 /
	   121 'GENCLS'  1     66.0000      22.0000 /
	   122 'GENCLS'  1    190.0000     63.0000 /
	   123 'GENCLS'  1     33.0000      11.0000 /
	   130 'GENCLS'  1     24.0000      8.0000 /
	   133 'GENCLS'  1   1000.0000    333.0000 /
	   134 'GENCLS'  1     44.0000      15.0000 /
	   135 'GENCLS'  1    115.0000     38.0000 /
	   137 'GENCLS'  1      3.5000       1.2000 /
	   139 'GENCLS'  1   1000.0000    333.0000 /
