0,   100.00,  32, 0, 1, 60.00     / PSS(R)E 32 RAW created by rawd32  MON, APR 06 2020  13:06
WESTERN ELECTRICITY COORDINATING COUNCIL 179-BUS SYSTEM (MODIFIED)
DISTRIBUTED WITH ANDES (https://github.com/cuihantao/andes)
     2,'CORONADO    ', 500.0000,1,   1,   1,   1,0.97947, -26.1745
     3,'CHOLLA      ', 345.0000,1,   1,   1,   1,0.97744, -16.9603
     4,'CORONADO    ',  20.0000,2,   1,   1,   1,1.04000, -19.6589
     5,'CRAIG       ', 345.0000,1,   1,   1,   1,0.97518,  16.2755
     6,'CRAIG       ',  22.0000,2,   1,   1,   1,0.95000,  23.5536
     7,'FOURCORN    ', 500.0000,1,   1,   1,   1,1.06814,  -7.9038
     8,'FOURCORN    ', 345.0000,1,   1,   1,   1,1.00914,  -4.6874
     9,'FCNGN4CC    ',  22.0000,2,   1,   1,   1,1.00000,   2.2301
    10,'FOURCORN    ', 230.0000,1,   1,   1,   1,1.00726,  -5.2308
    11,'HAYDEN      ',  20.0000,2,   1,   1,   1,1.00000,  33.7299
    12,'NAVAJO      ', 500.0000,1,   2,   1,   1,1.07205, -23.9351
    13,'NAVAJO 2    ',  26.0000,2,   2,   1,   1,1.00000, -17.8112
    14,'MOENKOPI    ', 500.0000,1,   2,   1,   1,1.06735, -24.8548
    15,'PALOVRD2    ',  24.0000,2,   2,   1,   1,0.96000, -21.7139
    16,'PALOVRDE    ', 500.0000,1,   2,   1,   1,1.04856, -29.6406
    17,'SAN JUAN    ', 345.0000,1,   1,   1,   1,1.03559,  -3.8744
    18,'SJUAN G4    ',  22.0000,2,   1,   1,   1,1.00000,  -0.8871
    19,'WESTWING    ', 500.0000,1,   2,   1,   1,1.05593, -29.5910
    20,'NAVAJO1     ', 500.0000,1,   2,   1,   1,1.07025, -22.8500
    21,'NAVAJO2     ', 500.0000,1,   2,   1,   1,1.06042, -25.9522
    22,'NAVAJO3     ', 500.0000,1,   2,   1,   1,1.04693, -22.1208
    23,'NAVAJO4     ', 500.0000,1,   2,   1,   1,1.02564, -31.4586
    24,'MOENKOP1    ', 500.0000,1,   2,   1,   1,1.05571, -23.3906
    25,'MOENKOP2    ', 500.0000,1,   2,   1,   1,1.04116, -31.0832
    26,'MOENKOP3    ', 500.0000,1,   2,   1,   1,1.05132, -15.5499
    27,'MOENKOP4    ', 500.0000,1,   2,   1,   1,1.04671, -42.3967
    28,'FOURCOR1    ', 500.0000,1,   1,   1,   1,1.06585,  -5.7792
    29,'FOURCOR2    ', 500.0000,1,   1,   1,   1,1.06933, -27.9822
    30,'CANAD G1    ',  20.0000,2,   1,   1,   1,1.00000,  24.7380
    31,'CANADA      ', 500.0000,1,   1,   1,   1,1.03634,  20.9474
    32,'CANALB      ', 500.0000,1,   1,   1,   1,1.07861,  49.2370
    33,'CA230TO     ', 230.0000,1,   1,   1,   1,0.97855,  53.8260
    34,'CA230       ', 230.0000,1,   1,   1,   1,1.00114,  62.8749
    35,'CMAIN GM    ',  20.0000,2,   1,   1,   1,1.02000,  67.7961
    36,'BRIDGER2    ',  22.0000,2,   1,   1,   1,1.00900,   2.4615
    37,'ADELANTO    ', 500.0000,1,   2,   1,   1,1.06032, -42.1554
    38,'ADELAN&1    ', 500.0000,1,   2,   1,   1,1.08090, -46.2256
    39,'CASTAIC     ', 230.0000,1,   2,   1,   1,1.03195, -47.2901
    40,'CASTAI4G    ',  18.0000,2,   2,   1,   1,1.02000, -45.9803
    41,'GLENDAL     ', 230.0000,1,   2,   1,   1,1.02337, -50.9223
    42,'HAYNES      ', 230.0000,1,   2,   1,   1,1.03129, -50.6520
    43,'HAYNES3G    ',  18.0000,2,   2,   1,   1,1.00000, -47.3488
    44,'INTERMT     ', 345.0000,1,   1,   1,   1,1.05257,  -4.3661
    45,'INTERM1G    ',  26.0000,2,   1,   1,   1,1.05000,   0.2811
    46,'OLIVE       ', 230.0000,1,   2,   1,   1,1.03475, -47.6289
    47,'OWENS G     ',  11.5000,2,   2,   1,   1,1.02000, -47.2682
    48,'RINALDI     ', 230.0000,1,   2,   1,   1,1.03402, -47.8387
    49,'RINALDI     ', 500.0000,1,   2,   1,   1,1.07212, -45.4811
    50,'RIVER       ', 230.0000,1,   2,   1,   1,1.02362, -51.8438
    51,'STA B       ', 138.0000,1,   2,   1,   1,1.03256, -51.9003
    52,'STA B1      ', 287.0000,1,   2,   1,   1,1.03663, -50.7167
    53,'STA B2      ', 287.0000,1,   2,   1,   1,1.03663, -50.7167
    54,'STA BLD     ', 230.0000,1,   2,   1,   1,1.02728, -52.1086
    55,'STA E       ', 230.0000,1,   2,   1,   1,1.02516, -50.0567
    56,'STA E       ', 500.0000,1,   2,   1,   1,1.04304, -47.6632
    57,'STA F       ', 230.0000,1,   2,   1,   1,1.02484, -51.8789
    58,'STA G       ', 230.0000,1,   2,   1,   1,1.02394, -51.1740
    59,'STA J       ', 230.0000,1,   2,   1,   1,1.03112, -48.9133
    60,'SYLMARLA    ', 230.0000,1,   2,   1,   1,1.03832, -47.1488
    61,'SYLMAR S    ', 230.0000,1,   2,   1,   1,1.02073, -48.2552
    62,'VALLEY      ', 230.0000,1,   2,   1,   1,1.02930, -49.0304
    63,'VICTORVL    ', 287.0000,1,   2,   1,   1,1.05209, -44.4925
    64,'VICTORVL    ', 500.0000,1,   2,   1,   1,1.05866, -42.4751
    65,'MONTA G1    ',  20.0000,2,   1,   1,   1,1.00000,  56.5947
    66,'MONTANA     ', 500.0000,1,   1,   1,   1,1.04928,  48.2022
    67,'BIG EDDY    ', 115.0000,1,   1,   1,   1,1.06863, -16.9326
    68,'BIG EDDY    ', 230.0000,1,   1,   1,   1,1.06592, -14.5699
    69,'BIG EDDY    ', 500.0000,1,   1,   1,   1,1.08919, -13.3098
    70,'DALLES21    ',  13.8000,2,   1,   1,   1,1.05500,  -7.9400
    71,'CELILO      ', 230.0000,1,   1,   1,   1,1.06159, -15.0760
    72,'CELILOCA    ', 500.0000,1,   1,   1,   1,1.08964, -13.4178
    73,'COLSTRP     ', 500.0000,1,   1,   1,   1,1.07839,  -1.3595
    74,'COULEE      ', 500.0000,1,   1,   1,   1,1.07000,   0.1645
    75,'GARRISON    ', 500.0000,1,   1,   1,   1,1.03705, -12.1586
    76,'JOHN DAY    ', 500.0000,1,   1,   1,   1,1.08283, -11.1230
    77,'JOHN DAY    ',  13.8000,3,   1,   1,   1,1.00000,   0.0000
    78,'HANFORD     ', 500.0000,1,   1,   1,   1,1.04947,   0.2258
    79,'NORTH G3    ',  20.0000,2,   1,   1,   1,1.00000,  26.5872
    80,'NORTH       ', 500.0000,1,   1,   1,   1,1.04993,  12.1085
    81,'BURNS       ', 500.0000,1,   1,   1,   1,1.05295, -19.5513
    82,'GRIZZLY     ', 500.0000,1,   1,   1,   1,1.06740, -17.1477
    83,'MALIN       ', 500.0000,1,   1,   1,   1,1.05433, -23.3455
    84,'MIDPOINT    ', 500.0000,1,   1,   1,   1,1.06195,  -5.1981
    85,'MIDPOINT    ', 345.0000,1,   1,   1,   1,0.99845,  -1.5707
    86,'SUMMER L    ', 500.0000,1,   1,   1,   1,1.05818, -18.2347
    87,'GRIZZLY1    ', 500.0000,1,   1,   1,   1,1.06533, -18.7474
    88,'GRIZZLY2    ', 500.0000,1,   1,   1,   1,1.07143, -16.0156
    89,'MALIN1      ', 500.0000,1,   1,   1,   1,1.05062, -14.1380
    90,'MALIN2      ', 500.0000,1,   1,   1,   1,1.06088, -19.8058
    91,'GRIZZLY3    ', 500.0000,1,   1,   1,   1,1.07997, -21.7956
    92,'GRIZZLY4    ', 500.0000,1,   1,   1,   1,1.06943, -17.2249
    93,'GRIZZLY5    ', 500.0000,1,   1,   1,   1,1.06860, -22.4488
    94,'GRIZZLY6    ', 500.0000,1,   1,   1,   1,1.07170, -17.8609
    95,'GRIZZLY7    ', 500.0000,1,   1,   1,   1,1.07926, -22.0559
    96,'GRIZZLY8    ', 500.0000,1,   1,   1,   1,1.06917, -17.2247
    97,'GRIZZLY9    ', 500.0000,1,   1,   1,   1,1.06761, -22.7454
    98,'GRIZZLYA    ', 500.0000,1,   1,   1,   1,1.07104, -17.8942
    99,'BURNS1      ', 500.0000,1,   1,   1,   1,0.97284,   8.0442
   100,'CORTINA     ', 200.0000,1,   3,   1,   1,1.13097, -34.9741
   101,'COTWDPGE    ', 200.0000,1,   3,   1,   1,1.13613, -30.4883
   102,'DIABLO      ', 500.0000,1,   2,   1,   1,1.05298, -46.1260
   103,'DIABLO1     ',  25.0000,2,   2,   1,   1,0.98000, -42.3238
   104,'GATES       ', 500.0000,1,   2,   1,   1,1.04707, -47.6820
   105,'GLENN       ', 200.0000,1,   3,   1,   1,1.14090, -34.1986
   106,'LOGAN CR    ', 200.0000,1,   3,   1,   1,1.14016, -34.5836
   107,'LOSBANOS    ', 500.0000,1,   2,   1,   1,1.04927, -49.5273
   108,'MIDWAY      ', 500.0000,1,   2,   1,   1,1.05934, -48.6051
   109,'MIDWAY      ', 200.0000,1,   2,   1,   1,1.16705, -51.4430
   110,'MOSSLAND    ', 500.0000,1,   2,   1,   1,1.04639, -49.7921
   111,'OLINDA      ', 500.0000,1,   3,   1,   1,1.03727, -31.0686
   112,'ROUND MT    ',  20.0000,2,   3,   1,   1,1.02000, -15.0791
   113,'ROUND MT    ', 200.0000,1,   3,   1,   1,1.12385, -25.1402
   114,'ROUND MT    ', 500.0000,1,   3,   1,   1,1.03454, -27.9316
   115,'TABLE MT    ', 500.0000,1,   3,   1,   1,1.01342, -32.0699
   116,'TEVATR      ',  20.0000,2,   3,   1,   1,1.05000, -35.6850
   117,'TEVATR      ', 200.0000,1,   3,   1,   1,1.12744, -39.6332
   118,'TEVATR2     ',  20.0000,2,   3,   1,   1,1.00000, -30.7816
   119,'TEVATR      ', 500.0000,1,   3,   1,   1,0.99816, -38.9938
   120,'OLINDA1     ', 500.0000,1,   3,   1,   1,1.05026, -24.0934
   121,'OLINDA2     ', 500.0000,1,   3,   1,   1,1.01142, -38.0294
   122,'OLINDA3     ', 500.0000,1,   3,   1,   1,1.02786, -30.7891
   123,'OLINDA4     ', 500.0000,1,   3,   1,   1,0.98098, -46.5990
   124,'ROUND1      ', 500.0000,1,   3,   1,   1,1.04054, -22.0273
   125,'ROUND2      ', 500.0000,1,   3,   1,   1,1.01079, -36.1445
   126,'ROUND3      ', 500.0000,1,   3,   1,   1,1.04054, -22.0273
   127,'ROUND4      ', 500.0000,1,   3,   1,   1,1.01079, -36.1445
   128,'TABLE1      ', 500.0000,1,   3,   1,   1,1.01257, -25.8067
   129,'TABLE2      ', 500.0000,1,   3,   1,   1,0.99882, -45.3405
   130,'TABLE3      ', 500.0000,1,   3,   1,   1,1.01755, -27.3173
   131,'TABLE4      ', 500.0000,1,   3,   1,   1,0.99876, -41.4218
   132,'TEVATR1     ', 500.0000,1,   2,   1,   1,0.97999, -36.9419
   133,'TEVATR2     ', 500.0000,1,   2,   1,   1,1.07047, -51.7010
   134,'TEVATR3     ', 500.0000,1,   2,   1,   1,0.97141, -35.0590
   135,'GATES1      ', 500.0000,1,   2,   1,   1,1.06807, -49.9922
   136,'DEVERS      ', 500.0000,1,   2,   1,   1,1.03539, -43.5212
   137,'EAGLROCK    ', 230.0000,1,   2,   1,   1,1.01010, -52.7598
   138,'ELDORADO    ',  20.0000,2,   2,   1,   1,1.02000, -25.9732
   139,'ELDORADO    ', 500.0000,1,   2,   1,   1,1.05122, -33.0947
   140,'LITEHIPE    ',  20.0000,2,   2,   1,   1,1.02000, -49.6246
   141,'LITEHIPE    ', 230.0000,1,   2,   1,   1,1.01186, -55.7741
   142,'LUGO        ', 500.0000,1,   2,   1,   1,1.05498, -46.0893
   143,'MESA CAL    ', 230.0000,1,   2,   1,   1,1.00705, -55.0594
   144,'MIRALOMA    ',  20.0000,2,   2,   1,   1,1.05000, -45.4414
   145,'MIRALOMA    ', 500.0000,1,   2,   1,   1,1.04087, -49.6789
   146,'MIRALOMA    ', 230.0000,1,   2,   1,   1,1.03821, -50.1247
   147,'MOHAVE      ', 500.0000,1,   2,   1,   1,1.06999, -29.3603
   148,'MOHAV1CC    ',  22.0000,2,   2,   1,   1,1.05000, -21.0397
   149,'PARDEE      ',  20.0000,2,   2,   1,   1,1.01000, -39.5994
   150,'PARDEE      ', 230.0000,1,   2,   1,   1,1.00600, -51.6818
   151,'SERRANO     ', 500.0000,1,   2,   1,   1,1.04129, -50.0775
   152,'VALLEY      ', 500.0000,1,   2,   1,   1,1.03694, -47.7607
   153,'VINCENT     ', 500.0000,1,   2,   1,   1,1.06119, -48.9450
   154,'VINCENT     ', 230.0000,1,   2,   1,   1,0.99489, -51.6324
   155,'CAMP WIL    ', 345.0000,1,   1,   1,   1,1.04289,  -2.4160
   156,'BENLOMND    ', 345.0000,1,   1,   1,   1,1.04464,  -3.3929
   157,'BENLOMND    ', 230.0000,1,   1,   1,   1,1.04624,  -3.9585
   158,'EMERY       ', 345.0000,1,   1,   1,   1,1.03705,   4.8898
   159,'EMERY       ',  20.0000,2,   1,   1,   1,1.05000,   9.6052
   160,'MONA        ', 345.0000,1,   1,   1,   1,1.05596,  -2.0072
   161,'NAUGHTON    ', 230.0000,1,   1,   1,   1,1.04453,   0.6143
   162,'NAUGHT      ',  20.0000,2,   1,   1,   1,1.00000,   3.4140
   163,'PINTO PS    ', 345.0000,1,   1,   1,   1,1.03679,  -2.4413
   164,'PINTO       ', 345.0000,1,   1,   1,   1,1.04044,  -1.4027
   165,'SPAN FRK    ', 345.0000,1,   1,   1,   1,1.03514,  -1.0920
   166,'SIGURD      ', 345.0000,1,   1,   1,   1,1.05190,  -0.5455
   167,'TERMINAL    ', 345.0000,1,   1,   1,   1,1.03911,  -3.4207
   168,'MALIN3      ', 500.0000,1,   3,   1,   1,1.06106, -19.7689
   169,'MALIN4      ', 500.0000,1,   3,   1,   1,1.02557, -31.6678
   170,'MALIN5      ', 500.0000,1,   3,   1,   1,1.06179, -19.0138
   171,'MALIN6      ', 500.0000,1,   3,   1,   1,1.02702, -31.6971
   172,'MALIN7      ', 500.0000,1,   3,   1,   1,1.05696, -17.4396
   173,'MALIN8      ', 500.0000,1,   3,   1,   1,1.03194, -37.1499
   174,'MIDWAY1     ', 500.0000,1,   2,   1,   1,1.04651, -48.2385
   175,'MIDWAY2     ', 500.0000,1,   2,   1,   1,1.05458, -49.3078
   176,'MIDWAY3     ', 500.0000,1,   2,   1,   1,1.04625, -48.2334
   177,'MIDWAY4     ', 500.0000,1,   2,   1,   1,1.05470, -49.3092
   178,'MIDWAY5     ', 500.0000,1,   2,   1,   1,1.04598, -48.2211
   179,'MIDWAY6     ', 500.0000,1,   2,   1,   1,1.05705, -49.2854
   180,'BURNS2      ', 500.0000,1,   1,   1,   1,0.98437,  -6.6858
 0 /End of Bus data, Begin Load data
     2,'BL',1,   1,   1,  1750.000,   -56.000,     0.000,     0.000,     0.000,     0.000,   1,1
     4,'BL',1,   1,   1,   100.000,     0.000,     0.000,     0.000,     0.000,     0.000,   1,1
     5,'BL',1,   1,   1,  2350.000,  -127.000,     0.000,     0.000,     0.000,     0.000,   1,1
     6,'BL',1,   1,   1,   100.000,     0.000,     0.000,     0.000,     0.000,     0.000,   1,1
     8,'BL',1,   1,   1,   239.000,   -56.000,     0.000,     0.000,     0.000,     0.000,   1,1
     9,'BL',1,   1,   1,   100.000,     0.000,     0.000,     0.000,     0.000,     0.000,   1,1
    10,'BL',1,   1,   1,   139.700,    23.800,     0.000,     0.000,     0.000,     0.000,   1,1
    11,'BL',1,   1,   1,   100.000,     0.000,     0.000,     0.000,     0.000,     0.000,   1,1
    12,'BL',1,   2,   1,    90.000,    70.000,     0.000,     0.000,     0.000,     0.000,   1,1
    13,'BL',1,   2,   1,   100.000,     0.000,     0.000,     0.000,     0.000,     0.000,   1,1
    15,'BL',1,   2,   1,   100.000,     0.000,     0.000,     0.000,     0.000,     0.000,   1,1
    16,'BL',1,   2,   1,   793.400,   207.000,     0.000,     0.000,     0.000,     0.000,   1,1
    17,'BL',1,   1,   1,   840.000,     5.000,     0.000,     0.000,     0.000,     0.000,   1,1
    18,'BL',1,   1,   1,   100.000,     0.000,     0.000,     0.000,     0.000,     0.000,   1,1
    19,'BL',1,   2,   1,   617.000,   -69.000,     0.000,     0.000,     0.000,     0.000,   1,1
    30,'BL',1,   1,   1,   100.000,     0.000,     0.000,     0.000,     0.000,     0.000,   1,1
    31,'BL',1,   1,   1,  4400.000,  1000.000,     0.000,     0.000,     0.000,     0.000,   1,1
    34,'BL',1,   1,   1,  3600.000,   700.000,     0.000,     0.000,     0.000,     0.000,   1,1
    35,'BL',1,   1,   1,   100.000,     0.000,     0.000,     0.000,     0.000,     0.000,   1,1
    36,'BL',1,   1,   1,   100.000,     0.000,     0.000,     0.000,     0.000,     0.000,   1,1
    37,'BL',1,   2,   1, -1862.000,   971.000,     0.000,     0.000,     0.000,     0.000,   1,1
    40,'BL',1,   2,   1,   100.000,     0.000,     0.000,     0.000,     0.000,     0.000,   1,1
    41,'BL',1,   2,   1,   135.000,    27.000,     0.000,     0.000,     0.000,     0.000,   1,1
    43,'BL',1,   2,   1,   100.000,     0.000,     0.000,     0.000,     0.000,     0.000,   1,1
    44,'BL',1,   1,   1,  2053.000,   907.100,     0.000,     0.000,     0.000,     0.000,   1,1
    45,'BL',1,   1,   1,   100.000,     0.000,     0.000,     0.000,     0.000,     0.000,   1,1
    46,'BL',1,   2,   1,   -72.800,   -17.000,     0.000,     0.000,     0.000,     0.000,   1,1
    47,'BL',1,   2,   1,   100.000,     0.000,     0.000,     0.000,     0.000,     0.000,   1,1
    48,'BL',1,   2,   1,   121.000,    25.000,     0.000,     0.000,     0.000,     0.000,   1,1
    50,'BL',1,   2,   1,   320.000,    65.000,     0.000,     0.000,     0.000,     0.000,   1,1
    51,'BL',1,   2,   1,   237.200,   -63.200,     0.000,     0.000,     0.000,     0.000,   1,1
    54,'BL',1,   2,   1,   138.000,    28.000,     0.000,     0.000,     0.000,     0.000,   1,1
    55,'BL',1,   2,   1,   807.800,   132.100,     0.000,     0.000,     0.000,     0.000,   1,1
    57,'BL',1,   2,   1,   117.000,    24.000,     0.000,     0.000,     0.000,     0.000,   1,1
    58,'BL',1,   2,   1,   121.000,    25.000,     0.000,     0.000,     0.000,     0.000,   1,1
    59,'BL',1,   2,   1,   887.700,    -6.200,     0.000,     0.000,     0.000,     0.000,   1,1
    60,'BL',1,   2,   1, -2771.000,  1654.000,     0.000,     0.000,     0.000,     0.000,   1,1
    61,'BL',1,   2,   1,   401.000,    80.600,     0.000,     0.000,     0.000,     0.000,   1,1
    62,'BL',1,   2,   1,   205.200,    17.600,     0.000,     0.000,     0.000,     0.000,   1,1
    63,'BL',1,   2,   1,  -129.000,    32.200,     0.000,     0.000,     0.000,     0.000,   1,1
    65,'BL',1,   1,   1,   100.000,     0.000,     0.000,     0.000,     0.000,     0.000,   1,1
    66,'BL',1,   1,   1,  1700.000,   300.000,     0.000,     0.000,     0.000,     0.000,   1,1
    67,'BL',1,   1,   1,   160.000,    31.250,     0.000,     0.000,     0.000,     0.000,   1,1
    68,'BL',1,   1,   1,   -67.500,   160.000,     0.000,     0.000,     0.000,     0.000,   1,1
    69,'BL',1,   1,   1,   -44.200,    22.000,     0.000,     0.000,     0.000,     0.000,   1,1
    70,'BL',1,   1,   1,   100.000,     0.000,     0.000,     0.000,     0.000,     0.000,   1,1
    71,'BL',1,   1,   1,  3137.000,  1681.000,     0.000,     0.000,     0.000,     0.000,   1,1
    73,'BL',1,   1,   1, -1525.000,   -50.000,     0.000,     0.000,     0.000,     0.000,   1,1
    75,'BL',1,   1,   1,  2584.000,   394.000,     0.000,     0.000,     0.000,     0.000,   1,1
    76,'BL',1,   1,   1,  3200.000,  1100.000,     0.000,     0.000,     0.000,     0.000,   1,1
    77,'BL',1,   1,   1,   100.000,     0.000,     0.000,     0.000,     0.000,     0.000,   1,1
    78,'BL',1,   1,   1,  3500.000,   500.000,     0.000,     0.000,     0.000,     0.000,   1,1
    79,'BL',1,   1,   1,   100.000,     0.000,     0.000,     0.000,     0.000,     0.000,   1,1
    80,'BL',1,   1,   1,  5000.000,   400.000,     0.000,     0.000,     0.000,     0.000,   1,1
    82,'BL',1,   1,   1,   -66.600,   -97.000,     0.000,     0.000,     0.000,     0.000,   1,1
    83,'BL',1,   1,   1,  -339.000,  -119.000,     0.000,     0.000,     0.000,     0.000,   1,1
    85,'BL',1,   1,   1,   610.000,  -414.000,     0.000,     0.000,     0.000,     0.000,   1,1
   100,'BL',1,   3,   1,   -43.300,    20.000,     0.000,     0.000,     0.000,     0.000,   1,1
   101,'BL',1,   3,   1,   210.400,   -77.000,     0.000,     0.000,     0.000,     0.000,   1,1
   102,'BL',1,   2,   1,    50.000,    25.000,     0.000,     0.000,     0.000,     0.000,   1,1
   103,'BL',1,   2,   1,   100.000,     0.000,     0.000,     0.000,     0.000,     0.000,   1,1
   104,'BL',1,   2,   1,   305.000,    -7.600,     0.000,     0.000,     0.000,     0.000,   1,1
   105,'BL',1,   3,   1,    27.500,    -0.100,     0.000,     0.000,     0.000,     0.000,   1,1
   106,'BL',1,   3,   1,     8.010,     0.000,     0.000,     0.000,     0.000,     0.000,   1,1
   107,'BL',1,   2,   1,   265.000,    14.000,     0.000,     0.000,     0.000,     0.000,   1,1
   108,'BL',1,   2,   1,    55.600,  -329.000,     0.000,     0.000,     0.000,     0.000,   1,1
   109,'BL',1,   2,   1,   777.600,    32.600,     0.000,     0.000,     0.000,     0.000,   1,1
   110,'BL',1,   2,   1,    40.000,    21.500,     0.000,     0.000,     0.000,     0.000,   1,1
   111,'BL',1,   3,   1,  -189.000,    61.500,     0.000,     0.000,     0.000,     0.000,   1,1
   112,'BL',1,   3,   1,   100.000,     0.000,     0.000,     0.000,     0.000,     0.000,   1,1
   113,'BL',1,   3,   1,   148.000,     0.000,     0.000,     0.000,     0.000,     0.000,   1,1
   115,'BL',1,   3,   1,    -0.700,   118.500,     0.000,     0.000,     0.000,     0.000,   1,1
   116,'BL',1,   3,   1,   100.000,     0.000,     0.000,     0.000,     0.000,     0.000,   1,1
   117,'BL',1,   3,   1,   884.000,    54.800,     0.000,     0.000,     0.000,     0.000,   1,1
   118,'BL',1,   3,   1,   100.000,     0.000,     0.000,     0.000,     0.000,     0.000,   1,1
   119,'BL',1,   3,   1,  5661.000,  3491.000,     0.000,     0.000,     0.000,     0.000,   1,1
   136,'BL',1,   2,   1,   856.000,    19.600,     0.000,     0.000,     0.000,     0.000,   1,1
   137,'BL',1,   2,   1,   175.000,    18.000,     0.000,     0.000,     0.000,     0.000,   1,1
   138,'BL',1,   2,   1,   100.000,     0.000,     0.000,     0.000,     0.000,     0.000,   1,1
   139,'BL',1,   2,   1,   902.300,   -11.400,     0.000,     0.000,     0.000,     0.000,   1,1
   140,'BL',1,   2,   1,   100.000,     0.000,     0.000,     0.000,     0.000,     0.000,   1,1
   141,'BL',1,   2,   1,  3191.000,   630.000,     0.000,     0.000,     0.000,     0.000,   1,1
   142,'BL',1,   2,   1,   204.200,   -28.200,     0.000,     0.000,     0.000,     0.000,   1,1
   143,'BL',1,   2,   1,   377.400,    64.500,     0.000,     0.000,     0.000,     0.000,   1,1
   144,'BL',1,   2,   1,   100.000,     0.000,     0.000,     0.000,     0.000,     0.000,   1,1
   145,'BL',1,   2,   1,  3098.000,  1189.000,     0.000,     0.000,     0.000,     0.000,   1,1
   148,'BL',1,   2,   1,   100.000,     0.000,     0.000,     0.000,     0.000,     0.000,   1,1
   149,'BL',1,   2,   1,   100.000,     0.000,     0.000,     0.000,     0.000,     0.000,   1,1
   150,'BL',1,   2,   1,  3118.000,    78.000,     0.000,     0.000,     0.000,     0.000,   1,1
   151,'BL',1,   2,   1,  1230.000,    72.800,     0.000,     0.000,     0.000,     0.000,   1,1
   152,'BL',1,   2,   1,   406.000,    41.000,     0.000,     0.000,     0.000,     0.000,   1,1
   154,'BL',1,   2,   1,  1066.000,   -10.800,     0.000,     0.000,     0.000,     0.000,   1,1
   155,'BL',1,   1,   1,   457.700,    81.700,     0.000,     0.000,     0.000,     0.000,   1,1
   156,'BL',1,   1,   1,    33.900,    11.900,     0.000,     0.000,     0.000,     0.000,   1,1
   157,'BL',1,   1,   1,   148.000,    -7.900,     0.000,     0.000,     0.000,     0.000,   1,1
   158,'BL',1,   1,   1,   116.100,    38.400,     0.000,     0.000,     0.000,     0.000,   1,1
   159,'BL',1,   1,   1,   100.000,     0.000,     0.000,     0.000,     0.000,     0.000,   1,1
   160,'BL',1,   1,   1,   -62.000,    12.800,     0.000,     0.000,     0.000,     0.000,   1,1
   161,'BL',1,   1,   1,   255.000,   100.000,     0.000,     0.000,     0.000,     0.000,   1,1
   162,'BL',1,   1,   1,   100.000,     0.000,     0.000,     0.000,     0.000,     0.000,   1,1
   164,'BL',1,   1,   1,    31.600,    11.500,     0.000,     0.000,     0.000,     0.000,   1,1
   165,'BL',1,   1,   1,   141.200,    71.400,     0.000,     0.000,     0.000,     0.000,   1,1
   166,'BL',1,   1,   1,   379.000,   -43.000,     0.000,     0.000,     0.000,     0.000,   1,1
   167,'BL',1,   1,   1,   185.000,    78.500,     0.000,     0.000,     0.000,     0.000,   1,1
 0 /End of Load data, Begin Fixed shunt data
     7,'1 ',1,     0.000,  -113.000
     8,'1 ',1,     0.000,  -155.000
    12,'1 ',1,     0.000,  -190.000
    14,'1 ',1,     0.000,  -391.000
    16,'1 ',1,     0.000,  -146.000
    17,'1 ',1,     0.000,   390.000
    19,'1 ',1,     0.000,  -427.000
    37,'1 ',1,     0.000,   912.000
    44,'1 ',1,     0.000,   430.000
    49,'1 ',1,     0.000,   -80.000
    60,'1 ',1,     0.000,  2146.000
    63,'1 ',1,     0.000,  -108.000
    68,'1 ',1,     0.000,   576.850
    71,'1 ',1,     0.000,   792.000
    72,'1 ',1,     0.000,   462.000
    76,'1 ',1,     0.000,  1019.350
    78,'1 ',1,     0.000,   550.000
    80,'1 ',1,     0.000,  1200.000
    81,'1 ',1,     0.000,  -220.000
    82,'1 ',1,     0.000,  -674.000
    83,'1 ',1,     0.000,  -110.000
    84,'1 ',1,     0.000,  -220.000
    85,'1 ',1,     0.000,  -870.000
   104,'1 ',1,     0.000,   -91.000
   108,'1 ',1,     0.000,  -327.000
   109,'1 ',1,     0.000,  -130.000
   113,'1 ',1,     0.000,  -128.000
   114,'1 ',1,     0.000,   -91.000
   115,'1 ',1,     0.000,   -91.000
   117,'1 ',1,     0.000,   -32.000
   119,'1 ',1,     0.000,  1500.000
   139,'1 ',1,     0.000,  -319.000
   145,'1 ',1,     0.000,   400.000
   147,'1 ',1,     0.000,  -196.000
   154,'1 ',1,     0.000,  -190.000
   155,'1 ',1,     0.000,   -60.000
   158,'1 ',1,     0.000,  -220.000
   164,'1 ',1,     0.000,   -18.000
   166,'1 ',1,     0.000,   -50.000
   180,'1 ',1,     0.000,  -220.000
 0 /End of Fixed shunt data, Begin Generator data
     4,'1 ',   800.000,   123.043,   300.000,  -300.000,1.04000,     0,  1600.000, 0.00000E+0, 2.50000E-1, 0.00000E+0, 0.00000E+0,1.00000,1,  100.0,  9999.000,     0.000,   1,1.0000
     6,'1 ',  1048.000,  -132.905,   400.000,  -400.000,0.95000,     0,  2100.000, 0.00000E+0, 2.50000E-1, 0.00000E+0, 0.00000E+0,1.00000,1,  100.0,  9999.000,     0.000,   1,1.0000
     9,'1 ',  2160.000,   -30.469,   700.000,  -500.000,1.00000,     0,  4300.000, 0.00000E+0, 2.50000E-1, 0.00000E+0, 0.00000E+0,1.00000,1,  100.0,  9999.000,     0.000,   1,1.0000
    11,'1 ',  2050.000,   464.829,   900.000,  -900.000,1.00000,     0,  4100.000, 0.00000E+0, 2.50000E-1, 0.00000E+0, 0.00000E+0,1.00000,1,  100.0,  9999.000,     0.000,   1,1.0000
    13,'1 ',  1690.000,   195.571,   700.000,  -280.000,1.00000,     0,  3400.000, 0.00000E+0, 2.50000E-1, 0.00000E+0, 0.00000E+0,1.00000,1,  100.0,  9999.000,     0.000,   1,1.0000
    15,'1 ',  2640.000,   378.080,  1300.000,  -900.000,0.96000,     0,  5300.000, 0.00000E+0, 2.50000E-1, 0.00000E+0, 0.00000E+0,1.00000,1,  100.0,  9999.000,     0.000,   1,1.0000
    18,'1 ',   962.000,   148.778,   300.000,  -300.000,1.00000,     0,  2000.000, 0.00000E+0, 2.50000E-1, 0.00000E+0, 0.00000E+0,1.00000,1,  100.0,  9999.000,     0.000,   1,1.0000
    30,'1 ',  4450.000,  1011.075,  4000.000, -4000.000,1.00000,     0,  8900.000, 0.00000E+0, 2.50000E-1, 0.00000E+0, 0.00000E+0,1.00000,1,  100.0,  9999.000,     0.000,   1,1.0000
    35,'1 ',  4480.000,  1150.177,  5320.000, -3500.000,1.02000,     0,  9000.000, 0.00000E+0, 2.50000E-1, 0.00000E+0, 0.00000E+0,1.00000,1,  100.0,  9999.000,     0.000,   1,1.0000
    36,'1 ',  1640.000,   285.666,   600.000,  -525.000,1.00900,     0,  3300.000, 0.00000E+0, 2.50000E-1, 0.00000E+0, 0.00000E+0,1.00000,1,  100.0,  9999.000,     0.000,   1,1.0000
    40,'1 ',   200.000,   -52.159,   268.000,  -134.000,1.02000,     0,   400.000, 0.00000E+0, 2.50000E-1, 0.00000E+0, 0.00000E+0,1.00000,1,  100.0,  9999.000,     0.000,   1,1.0000
    43,'1 ',   325.000,    68.266,   300.000,  -220.000,1.00000,     0,   650.000, 0.00000E+0, 2.50000E-1, 0.00000E+0, 0.00000E+0,1.00000,1,  100.0,  9999.000,     0.000,   1,1.0000
    45,'1 ',  1780.000,   534.593,   850.000,  -440.000,1.05000,     0,  3600.000, 0.00000E+0, 2.50000E-1, 0.00000E+0, 0.00000E+0,1.00000,1,  100.0,  9999.000,     0.000,   1,1.0000
    47,'1 ',   110.000,    29.078,   100.000,  -100.000,1.02000,     0,   220.000, 0.00000E+0, 2.50000E-1, 0.00000E+0, 0.00000E+0,1.00000,1,  100.0,  9999.000,     0.000,   1,1.0000
    65,'1 ',  2910.000,   953.299,  1500.000, -1000.000,1.00000,     0,  5800.000, 0.00000E+0, 2.50000E-1, 0.00000E+0, 0.00000E+0,1.00000,1,  100.0,  9999.000,     0.000,   1,1.0000
    70,'1 ',  1301.000,   431.493,   692.000,  -711.000,1.05500,     0,  2600.000, 0.00000E+0, 2.50000E-1, 0.00000E+0, 0.00000E+0,1.00000,1,  100.0,  9999.000,     0.000,   1,1.0000
    77,'1 ',  5174.765,   855.276,  2649.000, -1850.000,1.00000,     0, 10400.000, 0.00000E+0, 2.50000E-1, 0.00000E+0, 0.00000E+0,1.00000,1,  100.0,  9999.000,     0.000,   1,1.0000
    79,'1 ',  9950.000,  1854.073,  5780.000, -2000.000,1.00000,     0, 20000.000, 0.00000E+0, 2.50000E-1, 0.00000E+0, 0.00000E+0,1.00000,1,  100.0,  9999.000,     0.000,   1,1.0000
   103,'1 ',   765.000,  -206.264,   330.000,  -310.000,0.98000,     0,  1500.000, 0.00000E+0, 2.50000E-1, 0.00000E+0, 0.00000E+0,1.00000,1,  100.0,  9999.000,     0.000,   1,1.0000
   112,'1 ',  1057.000,    25.675,   400.000,  -400.000,1.02000,     0,  2100.000, 0.00000E+0, 2.50000E-1, 0.00000E+0, 0.00000E+0,1.00000,1,  100.0,  9999.000,     0.000,   1,1.0000
   116,'1 ',   594.000,   192.348,   300.000,  -300.000,1.05000,     0,  1200.000, 0.00000E+0, 2.50000E-1, 0.00000E+0, 0.00000E+0,1.00000,1,  100.0,  9999.000,     0.000,   1,1.0000
   118,'1 ',  3467.000,  1654.420,  2500.000, -1000.000,1.00000,     0,  6900.000, 0.00000E+0, 2.50000E-1, 0.00000E+0, 0.00000E+0,1.00000,1,  100.0,  9999.000,     0.000,   1,1.0000
   138,'1 ',   982.700,  -128.764,   300.000,  -300.000,1.02000,     0,  2000.000, 0.00000E+0, 2.50000E-1, 0.00000E+0, 0.00000E+0,1.00000,1,  100.0,  9999.000,     0.000,   1,1.0000
   140,'1 ',  3195.000,  1032.512,  2000.000,  -900.000,1.02000,     0,  6400.000, 0.00000E+0, 2.50000E-1, 0.00000E+0, 0.00000E+0,1.00000,1,  100.0,  9999.000,     0.000,   1,1.0000
   144,'1 ',  1690.000,   593.821,   900.000,  -400.000,1.05000,     0,  3400.000, 0.00000E+0, 2.50000E-1, 0.00000E+0, 0.00000E+0,1.00000,1,  100.0,  9999.000,     0.000,   1,1.0000
   148,'1 ',  1680.000,   446.627,   700.000,  -300.000,1.05000,     0,  3400.000, 0.00000E+0, 2.50000E-1, 0.00000E+0, 0.00000E+0,1.00000,1,  100.0,  9999.000,     0.000,   1,1.0000
   149,'1 ',  2200.000,   393.721,   600.000,  -600.000,1.01000,     0,  4400.000, 0.00000E+0, 2.50000E-1, 0.00000E+0, 0.00000E+0,1.00000,1,  100.0,  9999.000,     0.000,   1,1.0000
   159,'1 ',  1665.000,   -31.368,  9999.000, -9999.000,1.05000,     0,  3300.000, 0.00000E+0, 2.50000E-1, 0.00000E+0, 0.00000E+0,1.00000,1,  100.0,  9999.000,     0.000,   1,1.0000
   162,'1 ',   445.000,    91.733,  9999.000, -9999.000,1.00000,     0,   900.000, 0.00000E+0, 2.50000E-1, 0.00000E+0, 0.00000E+0,1.00000,1,  100.0,  9999.000,     0.000,   1,1.0000
 0 /End of Generator data, Begin Branch data
     3,      8,'1 ', 1.79000E-3, 1.98800E-2,   2.57600,    0.00,    0.00,    0.00,  0.00000,  0.00000,  0.00000,  0.00000,1,1,   0.00,   1,1.0000
     5,     17,'1 ', 9.77000E-3, 1.10000E-1,   2.00000,    0.00,    0.00,    0.00,  0.00000,  0.00000,  0.00000,  0.00000,1,2,   0.00,   1,1.0000
     5,    160,'1 ', 8.11000E-3, 1.36900E-1,   2.43480,    0.00,    0.00,    0.00,  0.00000,  0.00000,  0.00000,  0.00000,1,1,   0.00,   1,1.0000
     7,     28,'1 ',-0.00000E+0,-4.08000E-3,   0.00000,    0.00,    0.00,    0.00,  0.00000,  0.00000,  0.00000,  0.00000,1,1,   0.00,   1,1.0000
     8,     17,'1 ', 5.00000E-4, 5.30000E-3,   0.08820,    0.00,    0.00,    0.00,  0.00000,  0.00000,  0.00000,  0.00000,1,1,   0.00,   1,1.0000