      3 'GENROU' 1     3.9000      0.32000E-01  0.54000      0.62000E-01
          2.6400       5.0000       1.8600       1.7800      0.25000
         0.45300      0.19500      0.14500       1.9714       6.9000      /
      3 'IEEEST' 1          3            0       0.0000       0.0000
          0.0000       0.0000       0.0000       0.0000       0.0000
          0.0000       0.0000      0.75000       1.0000       4.2000
         -2.0000      0.10000     -0.10000       0.0000       0.0000      /
      3 'ESST3A' 1    0.20000E-01  0.30000     -0.20000       8.0000
          1.0000       5.0000       20.000       0.0000       99.000
         -99.000       1.0000       3.6700      0.43500       6.4800
         0.10000E-01  0.98000E-02   4.8600       3.3300      0.40000
          99.000       0.0000    /
      3 'IEEEG1' 1          0           0        20.000      0.10000
          0.0000      0.20000       1.0000      -1.0000      0.95000
          0.0000      0.10000       0.0000       0.0000       0.0000
          0.0000       0.0000       0.0000      0.30000       0.0000
          8.7200      0.70000       0.0000    /
      5 'GENROU' 1     4.0000      0.32000E-01  0.52000      0.63000E-01
          2.6100       0.0000       1.8100       1.7300      0.24500
         0.51000      0.19000      0.14000       1.7850       7.1400      /
      5 'ST2CUT' 1          1            0            0            0
          5.5000       0.0000      0.30000E-01   0.0000       10.000
          10.000      0.40000      0.40000E-01   0.0000       0.0000
          0.0000       0.0000      0.50000E-01 -0.50000E-01   0.0000
          0.0000      /
      5 'ESST3A' 1    0.20000E-01  0.20000     -0.20000       8.2000
          1.0000       5.0000       50.000       0.0000       99.000
         -99.000       1.0000       3.5600      0.33500       5.8100
         0.10000E-01  0.77000E-02   5.6000       3.7500      0.40000
          99.000       0.0000    /
      5 'IEEEG1' 1          0           0        20.000      0.10000
          0.0000      0.20000       1.0000      -1.0000      0.95000
          0.0000      0.10000       0.0000       0.0000       0.0000
          0.0000       0.0000       0.0000      0.30000       0.0000
          8.7200      0.70000       0.0000    /
      8 'GENROU' 1     8.4000      0.35000E-01  0.46000      0.70000E-01
          3.4200       0.0000       1.7600       1.5800      0.28500
         0.48500      0.20500      0.15500       1.8429       6.4500      /
      8 'ST2CUT' 1          1            0            0            0
          10.000       0.0000       0.0000       0.0000       3.0000
          3.0000      0.15000      0.50000E-01  0.15000      0.50000E-01
         0.15000      0.50000E-01  0.50000E-01 -0.50000E-01   0.0000
          0.0000      /
      8 'EXST1'  1    0.20000E-01   99.000      -99.000       0.0000
         0.20000E-01   50.000      0.20000E-01   9999.0      -9999.0
          0.0000      0.10000E-01   1.0000    /
      8 'IEEEG1' 1          0           0        20.000      0.10000
          0.0000      0.20000       1.0000      -1.0000      0.95000
          0.0000      0.10000       0.0000       0.0000       0.0000
          0.0000       0.0000       0.0000      0.30000       0.0000
          8.7200      0.70000       0.0000    /
     10 'GENROU' 1     4.5000      0.40000E-01  0.50000      0.60000E-01
          2.4500       0.0000       1.7000       1.6500      0.25000
         0.50000      0.19000      0.14000       1.7850       7.1400      /
     10 'ST2CUT' 1          1            0            0            0
          0.0000       0.0000      0.25000E-01   0.0000      0.16000E-01
         0.16000E-01  0.26000      0.26000E-01  0.26000      0.26000E-01
          0.0000       0.0000      0.10000     -0.10000       0.0000
          0.0000      /
     10 'ESDC2A' 1    0.20000E-01   50.000      0.50000E-01  0.20000E-01
          0.0000       0.0000      -3.0000       0.0000      0.51200
         0.70000E-01   1.3000       0.0000       3.9825      0.50000
          5.3100       1.0490    /
     10 'IEEEG1' 1          0           0        20.000      0.10000
          0.0000      0.20000       1.0000      -1.0000      0.95000
          0.0000      0.10000       0.0000       0.0000       0.0000
          0.0000       0.0000       0.0000      0.30000       0.0000
          8.7200      0.70000       0.0000    /
     12 'GENROU' 1     4.2000      0.32000E-01  0.60000      0.66000E-01
          3.5900       0.0000       1.7600       1.6800      0.22000
         0.40000      0.17500      0.13000       1.9225       7.6900      /
     12 'ST2CUT' 1          1            0            0            0
          10.000       0.0000       0.0000       0.0000       3.0000
          3.0000      0.15000      0.50000E-01  0.15000      0.50000E-01
         0.15000      0.50000E-01  0.50000E-01 -0.50000E-01   0.0000
          0.0000      /
     12 'EXST1'  1    0.20000E-01   99.000      -99.000       1.0000
          10.000       75.000      0.20000E-01   9999.0      -9999.0
          0.0000      0.10000E-01   1.0000    /
     12 'IEEEG1' 1          0           0        20.000      0.10000
          0.0000      0.20000       1.0000      -1.0000      0.95000
          0.0000      0.10000       0.0000       0.0000       0.0000
          0.0000       0.0000       0.0000      0.30000       0.0000
          8.7200      0.70000       0.0000    /
     14 'GENROU' 1     8.2000      0.33000E-01  0.48000      0.55000E-01
          3.8300       0.0000       1.9800       1.8500      0.37500
         0.56700      0.28500      0.22500       1.4800       4.4400      /
     14 'ST2CUT' 1          1            0            0            0
          10.000       0.0000       0.0000       0.0000       3.0000
          3.0000      0.15000      0.50000E-01  0.15000      0.50000E-01
         0.15000      0.50000E-01  0.50000E-01 -0.50000E-01   0.0000
          0.0000      /
     14 'ESST3A' 1    0.20000E-01  0.20000     -0.20000       6.8000
          1.0000       5.0000       50.000       0.0000       99.000
         -99.000       1.0000       3.7700      0.12400       6.5200
         0.10000E-01  0.50000E-02   6.7700       0.0000      0.40000
          99.000       0.0000    /
     14 'IEEEG1' 1          0           0        20.000      0.10000
          0.0000      0.20000       1.0000      -1.0000      0.95000
          0.0000      0.10000       0.0000       0.0000       0.0000
          0.0000       0.0000       0.0000      0.30000       0.0000
          8.7200      0.70000       0.0000    /
     17 'GENROU' 1     3.8000      0.31000E-01  0.49000      0.58000E-01
          2.6300       0.0000       1.6700      0.61000      0.26000
         0.45300      0.20500      0.14500       1.9714       6.9000      /
     17 'ST2CUT' 1          1            0            0            0
          0.0000       0.0000       0.0000       0.0000       30.000
          30.000      0.23000      0.25000E-01  0.23000      0.25000E-01
          0.0000       0.0000      0.60000E-01 -0.60000E-01   0.0000
          0.0000      /
     17 'ESDC2A' 1    0.20000E-01   25.000      0.20000E-01  0.20000E-01
          0.0000       0.0000      -3.0000       0.0000      0.64200
         0.10300      0.99400       0.0000       2.5950      0.35600
          3.4600       1.0000    /
     17 'IEEEG1' 1          0           0        20.000      0.10000
          0.0000      0.20000       1.0000      -1.0000      0.95000
          0.0000      0.10000       0.0000       0.0000       0.0000
          0.0000       0.0000       0.0000      0.30000       0.0000
          8.7200      0.70000       0.0000    /
     29 'GENROU' 1     8.0000      0.50000E-01  0.20000      0.80000E-01
          4.3400       0.0000      0.90000      0.60000      0.25000
         0.60000      0.15000      0.90000E-01   2.2000       11.000      /
     29 'ST2CUT' 1          3            0            0            0
         -3.5000       0.0000       0.0000       0.0000       1.0000
          1.0000       0.0000       3.0000      0.80000E-01  0.27000E-01
         0.80000E-01  0.27000E-01  0.10000     -0.10000       0.0000
          0.0000      /
     29 'EXST1'  1    0.20000E-01   99.000      -99.000       0.0000
         0.20000E-01   72.500      0.20000E-01   9999.0      -9999.0
          0.0000      0.10000E-01   1.5000    /
     29 'IEEEG1' 1          0           0        20.000      0.10000
          0.0000      0.20000       1.0000      -1.0000      0.95000
          0.0000      0.10000       0.0000       0.0000       0.0000
          0.0000       0.0000       0.0000      0.30000       0.0000
          8.7200      0.70000       0.0000    /
     34 'GENROU' 1     4.6000      0.40000E-01  0.37000      0.10000
          2.9500       0.0000       1.8250       1.7800      0.29100
         0.44000      0.25000      0.23900       1.3933       4.1800      /
     34 'ST2CUT' 1          1            0            0            0
          10.000       0.0000      0.10000       0.0000       1.0000
          1.0000      0.20000      0.10000E-01   0.0000       0.0000
          0.0000       0.0000      0.50000E-01 -0.50000E-01   0.0000
          0.0000      /
     34 'EXST1'  1    0.20000E-01   99.000      -99.000       0.0000
         0.20000E-01   50.000      0.80000E-01   9999.0      -9999.0
          0.0000      0.15000E-01   1.0000    /
     34 'IEEEG1' 1          0           0        20.000      0.10000
          0.0000      0.20000       1.0000      -1.0000      0.95000
          0.0000      0.10000       0.0000       0.0000       0.0000
          0.0000       0.0000       0.0000      0.30000       0.0000
          8.7200      0.70000       0.0000    /
     35 'GENROU' 1     4.1000      0.33000E-01  0.56000      0.62000E-01
          2.3200       0.0000       2.0700       1.9900      0.28000
         0.49000      0.21500      0.15500       1.8429       6.4500      /
     35 'ST2CUT' 1          1            0            0            0
          10.000       0.0000       0.0000       0.0000       3.0000
          3.0000      0.15000      0.50000E-01  0.15000      0.50000E-01
         0.15000      0.50000E-01  0.50000E-01 -0.50000E-01   0.0000
          0.0000      /
     35 'EXST1'  1    0.20000E-01   99.000      -99.000       0.0000
         0.20000E-01   50.000      0.36000       9999.0      -9999.0
          0.0000      0.30000E-01   1.0000    /
     35 'IEEEG1' 1          0           0        20.000      0.10000
          0.0000      0.20000       1.0000      -1.0000      0.95000
          0.0000      0.10000       0.0000       0.0000       0.0000
          0.0000       0.0000       0.0000      0.30000       0.0000
          8.7200      0.70000       0.0000    /
     39 'GENROU' 1     9.8000      0.28000E-01  0.20000      0.16000
          6.4100       0.0000      0.99500      0.56800      0.19500
         0.56800      0.10000      0.89000E-01   2.2400       11.200      /
     39 'ST2CUT' 1          1            0            0            0
          0.0000       0.0000       0.0000       0.0000       15.000
          15.000       0.0000      0.53000E-01   0.0000      0.53000E-01
          0.0000       0.0000      0.50000E-01 -0.50000E-01   0.0000
          0.0000      /
     39 'EXST1'  1    0.20000E-01   99.000      -99.000       0.0000
         0.20000E-01   75.000      0.16000       9999.0      -9999.0
          0.0000      0.10000E-01   1.0000    /
     39 'IEEEG1' 1          0           0        20.000      0.10000
          0.0000      0.30000       1.0000      -1.0000      0.95000
          0.0000      0.10000       0.0000       0.0000       0.0000
          0.0000       0.0000       0.0000      0.30000       0.0000
          10.000      0.70000       0.0000    /
     42 'GENROU' 1     4.8000      0.37000E-01  0.50000      0.75000E-01
          4.1300       0.0000       1.7000       1.6200      0.25600
         0.41000      0.10000      0.85000E-01   1.8429       6.4500      /
     42 'ST2CUT' 1          3            0            0            0
          0.0000       0.0000      0.30000E-01   0.0000       1.5000
          1.5000      0.37500       12.000       0.0000       0.0000
          0.0000       0.0000      0.50000E-01 -0.50000E-01   0.0000
          0.0000      /
     42 'ESDC2A' 1    0.20000E-01   20.000      0.20000      0.20000E-01
          0.0000       0.0000      -2.0000       0.0000      0.54500
         0.90000E-01   1.0000       0.0000       3.0975      0.41000
          4.1300       1.0000    /
     42 'IEEEG1' 1          0           0        20.000      0.80000E-01
          0.0000      0.15000       1.0000      -1.0000      0.95000
          0.0000      0.50000E-01   0.0000       0.0000       0.0000
          0.0000       0.0000       0.0000      0.28000       0.0000
          10.000      0.72000       0.0000    /
     44 'GENROU' 1     4.7000      0.31000E-01  0.67000      0.61000E-01
          2.8800       0.0000       1.9900       1.9000      0.24500
         0.42000      0.10000      0.85000E-01   1.9057       6.6700      /
     44 'ST2CUT' 1          1            0            0            0
          3.0000       0.0000       0.0000       0.0000       10.000
          10.000      0.30000      0.30000E-01  0.30000      0.30000E-01
          0.0000       0.0000      0.10000     -0.10000       0.0000
          0.0000      /
     44 'ESST3A' 1    0.20000E-01  0.20000     -0.20000       7.2000
          1.0000       4.0000       50.000       0.0000       99.000
         -99.000       1.0000       4.3500      0.24300       8.4000
         0.10000E-01  0.50000E-02   6.3600       20.000      0.60000
          99.000       0.0000    /
     44 'IEEEG1' 1          0           0        20.000      0.10000
          0.0000      0.20000       1.0000      -1.0000      0.95000
          0.0000      0.10000       0.0000       0.0000       0.0000
          0.0000       0.0000       0.0000      0.30000       0.0000
          8.7200      0.70000       0.0000    /
     46 'GENROU' 1     7.4000      0.30000E-01  0.20000      0.16000
          3.8000       0.0000      0.61900      0.36500      0.23800
         0.36500      0.10000      0.85000E-01   1.7850       7.1400      /
     46 'ST2CUT' 1          1            0            0            0
          10.000       0.0000       0.0000       0.0000       3.0000
          3.0000      0.15000      0.50000E-01  0.15000      0.50000E-01
         0.15000      0.50000E-01  0.50000E-01 -0.50000E-01   0.0000
          0.0000      /
     46 'EXST1'  1    0.20000E-01   99.000      -99.000       0.0000
         0.20000E-01   50.000      0.16000       9999.0      -9999.0
          0.0000      0.15000E-01   1.0000    /
     46 'IEEEG1' 1          0           0        20.000      0.90000E-01
          0.0000      0.20000       1.0000      -1.0000      0.98000
          0.0000      0.30000      0.10000       0.0000       0.0000
          0.0000       0.0000       0.0000       0.0000       0.0000
          0.0000      0.90000       0.0000    /
     64 'GENROU' 1     4.7800      0.41000E-01  0.53000      0.67000E-01
          3.3800       0.0000       1.6026       1.5818      0.28525
         0.45122      0.23079      0.16596       1.9475       7.7900      /
     64 'ST2CUT' 1          1            0            0            0
          3.0000       0.0000      0.30000E-01   0.0000       20.000
          20.000       6.7200      0.67200       0.0000       0.0000
          0.0000       0.0000      0.10000     -0.10000       0.0000
          0.0000      /
     64 'EXST1'  1    0.20000E-01   99.000      -99.000       0.0000
         0.20000E-01   47.500      0.13000       9999.0      -9999.0
          0.0000      0.20000E-01   1.0000    /
     64 'IEEEG1' 1          0           0        20.000      0.10000
          0.0000      0.20000       1.0000      -1.0000      0.95000
          0.0000      0.50000       0.0000       0.0000       0.0000
          0.0000       0.0000       0.0000      0.30000       0.0000
          8.7200      0.70000       0.0000    /
     69 'GENROU' 1     4.0000      0.20000E-01  0.20000      0.50000E-01
          3.0000       0.0000       1.4846      0.83403      0.61720
         0.83403      0.47870      0.40033       1.3900       4.1700      /
     69 'ST2CUT' 1          1            0            0            0
          10.000       0.0000       0.0000       0.0000       3.0000
          3.0000      0.15000      0.50000E-01  0.15000      0.50000E-01
         0.15000      0.50000E-01  0.50000E-01 -0.50000E-01   0.0000
          0.0000      /
     69 'EXST1'  1    0.20000E-01   99.000      -99.000       0.0000
         0.20000E-01   50.000      0.16000       9999.0      -9999.0
          0.0000      0.26000E-01   1.0000    /
     69 'IEEEG1' 1          0           0        20.000      0.10000
          0.0000      0.20000       1.0000      -1.0000      0.95000
          0.0000      0.10000      0.30000       0.0000       0.0000
          0.0000       0.0000       0.0000      0.30000       0.0000
          8.7200      0.40000       0.0000    /
     76 'GENROU' 1     8.0000      0.30000E-01  0.20000      0.60000E-01
          3.6700       0.0000       1.2009      0.84062      0.46099
         0.84062      0.32024      0.30991       1.3900       4.1700      /
     76 'ST2CUT' 1          3            0            0            0
        -0.40000E-01   0.0000       0.0000       0.0000       29.500
          29.500       1.5000      0.15000       1.5000      0.15000
          0.0000       0.0000      0.90000E-01 -0.90000E-01   0.0000
          0.0000      /
     76 'ESDC2A' 1    0.20000E-01   20.000      0.60000E-01  0.20000E-01
          0.0000       0.0000      -3.0000       0.0000      0.13000
         0.50000E-01   1.3000       0.0000       3.3750      0.30000
          4.5000       1.0000    /
     76 'IEEEG1' 1          0           0        20.000      0.10000
          0.0000      0.20000       1.0000      -1.0000       1.0500
          0.0000      0.80000       0.0000       0.0000       0.0000
          0.0000       0.0000       0.0000      0.30000       0.0000
          8.7200      0.70000       0.0000    /
     78 'GENROU' 1     7.2000      0.43000E-01  0.20000      0.79000E-01
          3.4600       0.0000      0.63800      0.42400      0.22800
         0.42400      0.16100      0.12700       1.9675       7.8700      /
     78 'ST2CUT' 1          3            0            0            0
        -0.60000E-01   0.0000       0.0000       0.0000       29.500
          29.500       1.5000      0.15000       1.5000      0.15000
          0.0000       0.0000      0.90000E-01 -0.90000E-01   0.0000
          0.0000      /
     78 'ESDC2A' 1    0.20000E-01   20.000      0.10000      0.20000E-01
          0.0000       0.0000      -3.0000       0.0000      0.57000
         0.50000E-01   1.2000       0.0000       3.3750      0.30000
          4.5000       1.0000    /
     78 'IEEEG1' 1          0           0        20.000      0.10000
          0.0000      0.20000       1.0000      -1.0000      0.95000
          0.0000      0.10000       0.0000       0.0000       0.0000
          0.0000       0.0000       0.0000      0.30000       0.0000
          8.7200      0.70000       0.0000    /
    102 'GENROU' 1     6.1200      0.52000E-01   1.5000      0.14400
          3.4600       0.0000       2.1290       2.0740      0.46700
          1.2700      0.31100      0.25000       1.3333       4.0000      /
    102 'ST2CUT' 1          1            0            0            0
          10.000       0.0000       0.0000       0.0000       3.0000
          3.0000      0.15000      0.50000E-01  0.15000      0.50000E-01
         0.15000      0.50000E-01  0.50000E-01 -0.50000E-01   0.0000
          0.0000      /
    102 'EXST1'  1    0.20000E-01   99.000      -99.000      0.20000E-01
         0.20000E-01   40.000      0.20000E-01   9999.0      -9999.0
          0.0000      0.10000E-01   1.0000    /
    102 'IEEEG1' 1          0           0        20.000      0.10000
          0.0000      0.20000       1.0000      -1.0000      0.95000
          0.0000      0.10000       0.0000       0.0000       0.0000
          0.0000       0.0000       0.0000      0.30000       0.0000
          8.7200      0.70000       0.0000    /
    111 'GENROU' 1     4.0000      0.51000E-01  0.20000      0.33000E-01
          4.3900       5.0000       2.0548       1.3111      0.62622
          1.3111      0.51468      0.27397       1.7850       7.1400      /
    111 'IEEEST' 1          3            0       0.0000       0.0000
          0.0000       0.0000       0.0000       0.0000       0.0000
          0.0000       0.0000      0.75000       1.0000       4.2000
         -2.0000      0.10000     -0.10000       0.0000       0.0000      /
    111 'ESDC2A' 1    0.20000E-01   40.500      0.60000E-01  0.20000E-01
          0.0000       0.0000      -2.0000       0.0000      0.50000
         0.50000E-01   1.0000       0.0000       2.6250      0.54000
          20.000       1.0000    /
    111 'IEEEG1' 1          0           0        20.000      0.10000
          0.0000      0.20000       1.0000      -1.0000      0.95000
          0.0000      0.10000      0.10000       0.0000       0.0000
          0.0000       0.0000       0.0000      0.30000       0.0000
          8.7200      0.60000       0.0000    /
    115 'GENROU' 1     7.8000      0.60000E-01  0.20000      0.11000
          4.1600       0.0000      0.75000      0.53000      0.32000
         0.53000      0.30000      0.21500       1.5500       4.6500      /
    115 'IEEEST' 1          3            0       0.0000       0.0000
          0.0000       0.0000       0.0000       0.0000       0.0000
          0.0000       0.0000      0.75000       1.0000       4.2000
         -2.0000      0.10000     -0.10000       0.0000       0.0000      /
    115 'EXST1'  1    0.20000E-01   99.000      -99.000       0.0000
         0.20000E-01   40.000      0.20000E-01   9999.0      -9999.0
          0.0000      0.10000E-01   1.2000    /
    115 'IEEEG1' 1          0           0        20.000      0.10000
          0.0000      0.20000       1.0000      -1.0000      0.95000
          0.0000      0.10000       0.0000       0.0000       0.0000
          0.0000       0.0000       0.0000      0.30000       0.0000
          8.7200      0.70000       0.0000    /
    117 'GENROU' 1     4.5000      0.40000E-01  0.50000      0.60000E-01
          3.8200       0.0000       1.7000       1.6500      0.25000
         0.50000      0.19000      0.14000       1.7850       7.1400      /
    117 'IEEEST' 1          3            0       0.0000       0.0000
          0.0000       0.0000       0.0000       0.0000       0.0000
          0.0000       0.0000      0.75000       1.0000       4.2000
         -2.0000      0.10000     -0.10000       0.0000       0.0000      /
    117 'ESDC2A' 1    0.20000E-01   40.000      0.50000E-01  0.20000E-01
          0.0000       0.0000      -3.0000       0.0000      0.51200
         0.70000E-01   1.3000       0.0000       3.9825      0.50000
          5.3100       1.0490    /
    117 'IEEEG1' 1          0           0        20.000      0.10000
          0.0000      0.20000       1.0000      -1.0000      0.95000
          0.0000      0.10000       0.0000       0.0000       0.0000
          0.0000       0.0000       0.0000      0.30000       0.0000
          8.7200      0.70000       0.0000    /
    137 'GENROU' 1     7.8000      0.60000E-01  0.20000      0.11000
          6.0700       0.0000      0.75000      0.53000      0.32000
         0.53000      0.30000      0.21500       1.5500       4.6500      /
    137 'ST2CUT' 1          1            0            0            0
          10.000       0.0000       0.0000       0.0000       3.0000
          3.0000      0.15000      0.50000E-01  0.15000      0.50000E-01
         0.15000      0.50000E-01  0.50000E-01 -0.50000E-01   0.0000
          0.0000      /
    137 'EXST1'  1    0.20000E-01   99.000      -99.000       0.0000
         0.20000E-01   50.000      0.20000E-01   9999.0      -9999.0
          0.0000      0.10000E-01   1.2000    /
    137 'IEEEG1' 1          0           0        20.000      0.10000
          0.0000      0.20000       1.0000      -1.0000      0.95000
          0.0000      0.10000       0.0000       0.0000       0.0000
          0.0000       0.0000       0.0000      0.30000       0.0000
          8.7200      0.70000       0.0000    /
    139 'GENROU' 1     5.3000      0.35000E-01  0.50000      0.77000E-01
          2.8200       0.0000       1.6200       1.5700      0.24500
         0.37600      0.10000      0.95000E-01   2.1060       10.530      /
    139 'ST2CUT' 1          3            0            0            0
          0.0000       0.0000       0.0000       0.0000       29.500
          29.500       1.5000      0.15000       1.5000      0.15000
          0.0000       0.0000      0.90000E-01 -0.90000E-01   0.0000
          0.0000      /
    139 'ESDC2A' 1    0.20000E-01   20.000      0.50000E-01  0.20000E-01
          0.0000       0.0000      -3.0000       0.0000      0.60000
         0.70000E-01   1.3000       0.0000       2.8200      0.32000
          3.7600       1.0000    /
    139 'IEEEG1' 1          0           0        20.000      0.10000
          0.0000      0.20000       1.0000      -1.0000      0.95000
          0.0000      0.10000       0.0000       0.0000       0.0000
          0.0000       0.0000       0.0000      0.30000       0.0000
          8.7200      0.70000       0.0000    /
    143 'GENROU' 1     8.0000      0.50000E-01   1.5000      0.60000E-01
          2.7500       0.0000       1.9500       1.8700      0.34000
          1.0000      0.29000      0.24000       1.3900       4.1700      /
    143 'ST2CUT' 1          1            0            0            0
         0.50000       0.0000      0.42000E-01   0.0000       10.000
          10.000       1.0000      0.80000E-01   1.7000      0.80000E-01
          0.0000       0.0000      0.50000E-01 -0.50000E-01   0.0000
          0.0000      /
    143 'EXST1'  1    0.20000E-01   99.000      -99.000       0.0000
         0.20000E-01   50.000      0.19000       9999.0      -9999.0
          0.0000      0.15000E-01   1.0000    /
    143 'IEEEG1' 1          0           0        20.000      0.10000
          0.0000      0.20000       1.0000      -1.0000      0.95000
          0.0000      0.10000       0.0000       0.0000       0.0000
          0.0000       0.0000       0.0000      0.30000       0.0000
          8.7200      0.70000       0.0000    /
    147 'GENROU' 1     8.4000      0.35000E-01  0.46000      0.70000E-01
          3.4900       0.0000       1.7600       1.5800      0.28500
         0.48500      0.20500      0.15500       1.8429       6.4500      /
    147 'ST2CUT' 1          1            0            0            0
          5.0000       0.0000      0.29000E-01   0.0000       2.4000
          2.4000      0.14400      0.40000E-01  0.37700      0.10500
          0.0000       0.0000      0.50000E-01 -0.50000E-01   0.0000
          0.0000      /
    147 'EXST1'  1    0.20000E-01   99.000      -99.000       0.0000
         0.20000E-01   40.000      0.20000E-01   9999.0      -9999.0
          0.0000      0.10000E-01   1.0000    /
    147 'IEEEG1' 1          0           0        20.000      0.10000
          0.0000      0.20000       1.0000      -1.0000      0.95000
          0.0000      0.10000       0.0000       0.0000       0.0000
          0.0000       0.0000       0.0000      0.30000       0.0000
          8.7200      0.70000       0.0000    /
    148 'GENROU' 1     4.3000      0.32000E-01  0.43000      0.66000E-01
          3.0300       0.0000       1.7900       1.7150      0.22000
         0.44000      0.10000      0.85000E-01   1.8525       7.4100      /
    148 'ST2CUT' 1          1            0            0            0
          10.000       0.0000       0.0000       0.0000       3.0000
          3.0000      0.15000      0.50000E-01  0.15000      0.50000E-01
         0.15000      0.50000E-01  0.50000E-01 -0.50000E-01   0.0000
          0.0000      /
    148 'EXST1'  1    0.20000E-01   99.000      -99.000       0.0000
         0.20000E-01   40.000      0.20000       9999.0      -9999.0
          0.0000      0.35000E-01   1.7500    /
    148 'IEEEG1' 1          0           0        20.000      0.10000
          0.0000      0.20000       1.0000      -1.0000      0.95000
          0.0000      0.10000       0.0000       0.0000       0.0000
          0.0000       0.0000       0.0000      0.30000       0.0000
          8.7200      0.70000       0.0000    /
    158 'GENROU' 1     3.9000      0.32000E-01  0.49000      0.62000E-01
          2.8200       0.0000       1.6400       1.5700      0.24000
         0.43000      0.18500      0.13000       1.9225       7.6900      /
    158 'ST2CUT' 1          1            0            0            0
          8.0800       0.0000      0.30000E-01   0.0000       10.000
          10.000      0.15000      0.50000E-01  0.15000      0.50000E-01
          0.0000       0.0000      0.50000E-01 -0.50000E-01   0.0000
          0.0000      /
    158 'EXST1'  1    0.20000E-01   99.000      -99.000       1.0000
          10.000       40.000      0.20000E-01   9999.0      -9999.0
          0.0000      0.10000E-01   1.0000    /
    158 'IEEEG1' 1          0           0        20.000      0.10000
          0.0000      0.20000       1.0000      -1.0000      0.95000
          0.0000      0.10000       0.0000       0.0000       0.0000
          0.0000       0.0000       0.0000      0.30000       0.0000
          8.7200      0.70000       0.0000    /
    161 'GENROU' 1     5.2100      0.42000E-01   1.5000      0.42000E-01
          3.0100       0.0000       1.7980       1.7780      0.32400
         0.45000      0.26000      0.19300       1.4800       5.1800      /