    4 'GENCLS' 1    2.640000  4.000000  /
    6 'GENCLS' 1   2.610000  4.000000  /
    9 'GENCLS' 1   3.420000  4.000000  /
   11 'GENCLS' 1   2.450000  4.000000  /
   13 'GENCLS' 1   3.590000  4.000000  /
   15 'GENCLS' 1   3.830000  4.000000  /
   18 'GENCLS' 1   2.630000  4.000000  /
   30 'GENCLS' 1   4.340000  4.000000  /
   35 'GENCLS' 1   2.950000  4.000000  /
   36 'GENCLS' 1   2.320000  4.000000  /
   40 'GENCLS' 1   6.410000  4.000000  /
   43 'GENCLS' 1   4.130000  4.000000  /
   45 'GENCLS' 1   2.880000  4.000000  /
   47 'GENCLS' 1   3.800000  4.000000  /
   65 'GENCLS' 1   3.380000  4.000000  /
   70 'GENCLS' 1   3.000000  4.000000  /
   77 'GENCLS' 1   3.670000  4.000000  /
   79 'GENCLS' 1   3.460000  4.000000  /
  103 'GENCLS' 1   3.460000  4.000000  /
  112 'GENCLS' 1   4.390000  4.00000  /
  116 'GENCLS' 1   4.160000  4.000000  /
  118 'GENCLS' 1   3.820000  4.000000  /
  138 'GENCLS' 1   6.070000  4.000000  /
  140 'GENCLS' 1   2.820000  4.00000  /
  144 'GENCLS' 1   2.750000  4.000000  /
  148 'GENCLS' 1   3.490000  4.000000  /
  149 'GENCLS' 1   3.030000  4.00000  /
  159 'GENCLS' 1   2.820000  4.000000  /
  162 'GENCLS' 1   3.010000  4.000000  /
 Line 'Toggler' Line_104  1.0 /
