    3 'GENCLS' 1    2.640000  4.000000  /
    5 'GENCLS' 1   2.610000  4.000000  /
    8 'GENCLS' 1   3.420000  4.000000  /
   10 'GENCLS' 1   2.450000  4.000000  /
   12 'GENCLS' 1   3.590000  4.000000  /
   14 'GENCLS' 1   3.830000  4.000000  /
   17 'GENCLS' 1   2.630000  4.000000  /
   29 'GENCLS' 1   4.340000  4.000000  /
   34 'GENCLS' 1   2.950000  4.000000  /
   35 'GENCLS' 1   2.320000  4.000000  /
   39 'GENCLS' 1   6.410000  4.000000  /
   42 'GENCLS' 1   4.130000  4.000000  /
   44 'GENCLS' 1   2.880000  4.000000  /
   46 'GENCLS' 1   3.800000  4.000000  /
   64 'GENCLS' 1   3.380000  4.000000  /
   69 'GENCLS' 1   3.000000  4.000000  /
   76 'GENCLS' 1   3.670000  4.000000  /
   78 'GENCLS' 1   3.460000  4.000000  /
  102 'GENCLS' 1   3.460000  4.000000  /
  111 'GENCLS' 1   4.390000  4.00000  /
  115 'GENCLS' 1   4.160000  4.000000  /
  117 'GENCLS' 1   3.820000  4.000000  /
  137 'GENCLS' 1   6.070000  4.000000  /
  139 'GENCLS' 1   2.820000  4.00000  /
  143 'GENCLS' 1   2.750000  4.000000  /
  147 'GENCLS' 1   3.490000  4.000000  /
  148 'GENCLS' 1   3.030000  4.00000  /
  158 'GENCLS' 1   2.820000  4.000000  /
  161 'GENCLS' 1   3.010000  4.000000  /
