   3000 'GENROU' 1     5.0000      0.50000E-01   1.0000      0.50000E-01
          5.9700       0.0000       2.2200       2.1300      0.36000
         0.46800      0.22500      0.16875      0.10890      0.37795    /
   3000 'STAB2A' 1     1.0000       2.0000       0.0000       2.0000
         0.55000       1.0000      0.10000E-01  0.30000E-01/
   3000 'IEEET2' 1     0.0000       729.00      0.40000E-01   5.3200
         -4.0500       1.0000      0.44000      0.66700E-01   2.0000
         0.44000       6.5000      0.54000E-01   8.0000      0.20200    /
   3000 'IEESGO' 1    0.10000E-01   0.0000      0.15000      0.30000
          8.0000      0.40000       0.0000      0.70000      0.43000
          1.0000       0.0000    /
   3000 'GENROU' 2     5.0000      0.50000E-01   1.0000      0.50000E-01
          5.9700       0.0000       2.2200       2.1300      0.36000
         0.46800      0.22500      0.16875      0.10890      0.37795    /
   3000 'STAB2A' 2     1.0000       2.0000       0.0000       2.0000
         0.55000       1.0000      0.10000E-01  0.30000E-01/
   3000 'IEEET2' 2     0.0000       729.00      0.40000E-01   5.3200
         -4.0500       1.0000      0.44000      0.66700E-01   2.0000
         0.44000       6.5000      0.54000E-01   8.0000      0.20200    /
   3000 'IEESGO' 2    0.10000E-01   0.0000      0.15000      0.30000
          8.0000      0.40000       0.0000      0.70000      0.43000
          1.0000       0.0000    /
   3000 'GENROU' 3     5.0000      0.50000E-01   1.0000      0.50000E-01
          5.9700       0.0000       2.2200       2.1300      0.36000
         0.46800      0.22500      0.16875      0.10890      0.37795    /
   3000 'STAB2A' 3     1.0000       2.0000       0.0000       2.0000
         0.55000       1.0000      0.10000E-01  0.30000E-01/
   3000 'IEEET2' 3     0.0000       729.00      0.40000E-01   5.3200
         -4.0500       1.0000      0.44000      0.66700E-01   2.0000
         0.44000       6.5000      0.54000E-01   8.0000      0.20200    /
   3000 'IEESGO' 3    0.10000E-01   0.0000      0.15000      0.30000
          8.0000      0.40000       0.0000      0.70000      0.43000
          1.0000       0.0000    /
   3115 'GENSAL' 1     7.5700      0.45000E-01  0.10000       4.7410
          0.0000      0.94600      0.56500      0.29000      0.23000
         0.11077      0.10239      0.27420    /
   3115 'STAB2A' 1     1.0000       4.5000      0.87000       2.0000
         0.87000E-01   1.0000      0.10000E-01  0.40000E-01/
   3115 'SCRX'   1    0.25385       13.000       31.000      0.50000E-01
          0.0000       4.0000       0.0000       0.0000    /
   3115 'HYGOV'  1    0.60000E-01  0.40000       5.0000      0.50000E-01
         0.20000      0.10000       1.0000       0.0000       1.0000
          1.0577      0.50000      0.10000      /
   3115 'GENSAL' 2     7.5700      0.45000E-01  0.10000       4.7410
          0.0000      0.94600      0.56500      0.29000      0.23000
         0.11077      0.10239      0.27420    /
   3115 'STAB2A' 2     1.0000       4.5000      0.87000       2.0000
         0.87000E-01   1.0000      0.10000E-01  0.40000E-01/
   3115 'SCRX'   2    0.25385       13.000       31.000      0.50000E-01
          0.0000       4.0000       0.0000       0.0000    /
   3115 'HYGOV'  2    0.60000E-01  0.40000       5.0000      0.50000E-01
         0.20000      0.10000       1.0000       0.0000       1.0000
          1.0577      0.50000      0.10000      /
   3115 'GENSAL' 3     7.5700      0.45000E-01  0.10000       4.7410
          0.0000      0.94600      0.56500      0.29000      0.23000
         0.11077      0.10239      0.27420    /
   3115 'STAB2A' 3     1.0000       4.5000      0.87000       2.0000
         0.87000E-01   1.0000      0.10000E-01  0.40000E-01/
   3115 'SCRX'   3    0.25385       13.000       31.000      0.50000E-01
          0.0000       4.0000       0.0000       0.0000    /
   3115 'HYGOV'  3    0.60000E-01  0.40000       5.0000      0.50000E-01
         0.20000      0.10000       1.0000       0.0000       1.0000
          1.0577      0.50000      0.10000      /
   3115 'GENSAL' 4     7.5700      0.45000E-01  0.10000       4.7410
          0.0000      0.94600      0.56500      0.29000      0.23000
         0.11077      0.10239      0.27420    /
   3115 'STAB2A' 4     1.0000       4.5000      0.87000       2.0000
         0.87000E-01   1.0000      0.10000E-01  0.40000E-01/
   3115 'SCRX'   4    0.25385       13.000       31.000      0.50000E-01
          0.0000       4.0000       0.0000       0.0000    /
   3115 'HYGOV'  4    0.60000E-01  0.40000       5.0000      0.50000E-01
         0.20000      0.10000       1.0000       0.0000       1.0000
          1.0577      0.50000      0.10000      /
   3115 'GENSAL' 5     7.5700      0.45000E-01  0.10000       4.7410
          0.0000      0.94600      0.56500      0.29000      0.23000
         0.11080      0.10240      0.27420    /
   3115 'STAB2A' 5     1.0000       4.5000      0.87000       2.0000
         0.87000E-01   1.0000      0.10000E-01  0.40000E-01/
   3115 'SCRX'   5    0.25390       13.000       31.000      0.50000E-01
          0.0000       4.0000       0.0000       0.0000    /
   3115 'HYGOV'  5    0.60000E-01  0.40000       5.0000      0.50000E-01
         0.20000      0.10000       1.0000       0.0000       1.0000
          1.0577      0.50000      0.10000      /
   3245 'GENSAL' 1     5.0000      0.60000E-01  0.10000       3.3000
          0.0000      0.75000      0.50000      0.25000      0.15385
         0.11538      0.10239      0.27420    /
   3245 'SCRX'   1    0.25385       13.000       31.000      0.50000E-01
          0.0000       4.0000       0.0000       0.0000    /
   3245 'HYGOV'  1    0.60000E-01  0.40000       5.0000      0.50000E-01
         0.20000      0.10000       1.0000       0.0000       1.0000
          1.0100      0.50000      0.10000      /
   3249 'GENSAL' 1     10.130      0.60000E-01  0.10000       4.5430
          0.0000       1.0360      0.63000      0.28000      0.21000
         0.11538      0.10239      0.27420    /
   3249 'SCRX'   1    0.25385       13.000       31.000      0.50000E-01
          0.0000       4.0000       0.0000       0.0000    /
   3249 'HYGOV'  1    0.60000E-01  0.40000       5.0000      0.50000E-01
         0.20000      0.10000       1.0000       0.0000       1.0000
          1.1000      0.50000      0.10000      /
   3249 'GENSAL' 2     10.130      0.60000E-01  0.10000       4.5430
          0.0000       1.0360      0.63000      0.28000      0.21000
         0.11538      0.10239      0.27420    /
   3249 'SCRX'   2    0.25385       13.000       31.000      0.50000E-01
          0.0000       4.0000       0.0000       0.0000    /
   3249 'HYGOV'  2    0.60000E-01  0.40000       5.0000      0.50000E-01
         0.20000      0.10000       1.0000       0.0000       1.0000
          1.1000      0.50000      0.10000      /
   3249 'GENSAL' 3     10.130      0.60000E-01  0.10000       4.5430
          0.0000       1.0360      0.63000      0.28000      0.21000
         0.11538      0.10239      0.27420    /
   3249 'SCRX'   3    0.25385       13.000       31.000      0.50000E-01
          0.0000       4.0000       0.0000       0.0000    /
   3249 'HYGOV'  3    0.60000E-01  0.40000       5.0000      0.50000E-01
         0.20000      0.10000       1.0000       0.0000       1.0000
          1.1000      0.50000      0.10000      /
   3249 'GENSAL' 4     10.130      0.60000E-01  0.10000       4.5430
          0.0000       1.0360      0.63000      0.28000      0.21000
         0.11538      0.10239      0.27420    /
   3249 'SCRX'   4    0.25385       13.000       31.000      0.50000E-01
          0.0000       4.0000       0.0000       0.0000    /
   3249 'HYGOV'  4    0.60000E-01  0.40000       5.0000      0.50000E-01
         0.20000      0.10000       1.0000       0.0000       1.0000
          1.1000      0.50000      0.10000      /
   3249 'GENSAL' 5     10.130      0.60000E-01  0.10000       4.5430
          0.0000       1.0360      0.63000      0.28000      0.21000
         0.11538      0.10239      0.27420    /
   3249 'SCRX'   5    0.25385       13.000       31.000      0.50000E-01
          0.0000       4.0000       0.0000       0.0000    /
   3249 'HYGOV'  5    0.60000E-01  0.40000       5.0000      0.50000E-01
         0.20000      0.10000       1.0000       0.0000       1.0000
          1.1000      0.50000      0.10000      /
   3249 'GENSAL' 6     10.130      0.60000E-01  0.10000       4.5430
          0.0000       1.0360      0.63000      0.28000      0.21000
         0.11538      0.10239      0.27420    /
   3249 'SCRX'   6    0.25385       13.000       31.000      0.50000E-01
          0.0000       4.0000       0.0000       0.0000    /
   3249 'HYGOV'  6    0.60000E-01  0.40000       5.0000      0.50000E-01
         0.20000      0.10000       1.0000       0.0000       1.0000
          1.1000      0.50000      0.10000      /
   3249 'GENSAL' 7     10.130      0.60000E-01  0.10000       4.5430
          0.0000       1.0360      0.63000      0.28000      0.21000
         0.11538      0.10239      0.27420    /
   3249 'SCRX'   7    0.25385       13.000       31.000      0.50000E-01
          0.0000       4.0000       0.0000       0.0000    /
   3249 'HYGOV'  7    0.60000E-01  0.40000       5.0000      0.50000E-01
         0.20000      0.10000       1.0000       0.0000       1.0000
          1.1000      0.50000      0.10000      /
   3249 'GENSAL' 8     10.130      0.60000E-01  0.10000       4.5430
          0.0000       1.0360      0.63000      0.28000      0.21000
         0.11538      0.10239      0.27420    /
   3249 'SCRX'   8    0.25385       13.000       31.000      0.50000E-01
          0.0000       4.0000       0.0000       0.0000    /
   3249 'HYGOV'  8    0.60000E-01  0.40000       5.0000      0.50000E-01
         0.20000      0.10000       1.0000       0.0000       1.0000
          1.1000      0.50000      0.10000      /
   3300 'GENROU' 1     10.800      0.50000E-01   1.0000      0.50000E-01
          6.0000       0.0000       2.4200       2.0000      0.23000
         0.41080      0.16000      0.14812      0.10890      0.37795    /
   3300 'STAB2A' 1     1.0000       4.5000       0.0000       2.0000
         0.55000       1.0000      0.10000E-01  0.30000E-01/
   3300 'SCRX'   1     0.0000      0.40000E-01   10.000      0.40000E-01
          0.0000       5.0000       0.0000       0.0000    /
   3300 'IEESGO' 1    0.10000E-01   0.0000      0.15000      0.30000
          8.0000      0.40000       0.0000      0.70000      0.43000
          1.0000       0.0000    /
   3300 'GENROU' 2     10.800      0.50000E-01   1.0000      0.50000E-01
          6.0000       0.0000       2.4200       2.0000      0.23000
         0.41080      0.16000      0.14812      0.10890      0.37795    /
   3300 'STAB2A' 2     1.0000       4.5000       0.0000       2.0000
         0.55000       1.0000      0.10000E-01  0.30000E-01/
   3300 'SCRX'   2     0.0000      0.40000E-01   10.000      0.40000E-01
          0.0000       5.0000       0.0000       0.0000    /
   3300 'IEESGO' 2    0.10000E-01   0.0000      0.15000      0.30000
          8.0000      0.40000       0.0000      0.70000      0.43000
          1.0000       0.0000    /
   3300 'GENROU' 3     10.800      0.50000E-01   1.0000      0.50000E-01
          6.0000       0.0000       2.4200       2.0000      0.23000
         0.41080      0.16000      0.14812      0.10890      0.37795    /
   3300 'STAB2A' 3     1.0000       4.5000       0.0000       2.0000
         0.55000       1.0000      0.10000E-01  0.30000E-01/
   3300 'SCRX'   3     0.0000      0.40000E-01   10.000      0.40000E-01
          0.0000       5.0000       0.0000       0.0000    /
   3300 'IEESGO' 3    0.10000E-01   0.0000      0.15000      0.30000
          8.0000      0.40000       0.0000      0.70000      0.43000
          1.0000       0.0000    /
   3300 'GENROU' 4     10.800      0.50000E-01   1.0000      0.50000E-01
          6.0000       0.0000       2.4200       2.0000      0.23000
         0.41080      0.16000      0.14812      0.10890      0.37795    /
   3300 'STAB2A' 4     1.0000       4.5000       0.0000       2.0000
         0.55000       1.0000      0.10000E-01  0.30000E-01/
   3300 'SCRX'   4     0.0000      0.40000E-01   10.000      0.40000E-01
          0.0000       5.0000       0.0000       0.0000    /
   3300 'IEESGO' 4    0.10000E-01   0.0000      0.15000      0.30000
          8.0000      0.40000       0.0000      0.70000      0.43000
          1.0000       0.0000    /
   3300 'GENROU' 5     10.800      0.50000E-01   1.0000      0.50000E-01
          6.0000       0.0000       2.4200       2.0000      0.23000
         0.41080      0.16000      0.14812      0.10890      0.37795    /
   3300 'STAB2A' 5     1.0000       4.5000       0.0000       2.0000
         0.55000       1.0000      0.10000E-01  0.30000E-01/
   3300 'SCRX'   5     0.0000      0.40000E-01   10.000      0.40000E-01
          0.0000       5.0000       0.0000       0.0000    /
   3300 'IEESGO' 5    0.10000E-01   0.0000      0.15000      0.30000
          8.0000      0.40000       0.0000      0.70000      0.43000
          1.0000       0.0000    /
   3300 'GENROU' 6     10.800      0.50000E-01   1.0000      0.50000E-01
          6.0000       0.0000       2.4200       2.0000      0.23000
         0.41080      0.16000      0.14810      0.10890      0.37800    /
   3300 'STAB2A' 6     1.0000       4.5000       0.0000       2.0000
         0.55000       1.0000      0.10000E-01  0.30000E-01/
   3300 'SCRX'   6     0.0000      0.40000E-01   10.000      0.40000E-01
          0.0000       5.0000       0.0000       0.0000    /
   3300 'IEESGO' 6    0.10000E-01   0.0000      0.15000      0.30000
          8.0000      0.40000       0.0000      0.70000      0.43000
          1.0000       0.0000    /
   3359 'GENROU' 1     4.7500      0.50000E-01   1.0000      0.50000E-01
          4.8200       0.0000       2.1300       2.0300      0.31000
         0.40300      0.19370      0.14531      0.10890      0.37795    /
   3359 'STAB2A' 1     1.0000       4.5000       0.0000       2.0000
         0.68000       1.0000      0.10000E-01  0.30000E-01/
   3359 'SCRX'   1    0.20000       10.000       165.00      0.40000E-01
          0.0000       5.0000       0.0000       0.0000    /
   3359 'IEESGO' 1    0.10000E-01   0.0000      0.15000      0.30000
          8.0000      0.40000       0.0000      0.70000      0.43000
          1.0000       0.0000    /
   3359 'GENROU' 2     4.7500      0.50000E-01   1.0000      0.50000E-01
          4.8200       0.0000       2.1300       2.0300      0.31000
         0.40300      0.19370      0.14531      0.10890      0.37795    /
   3359 'STAB2A' 2     1.0000       4.5000       0.0000       2.0000
         0.68000       1.0000      0.10000E-01  0.30000E-01/
   3359 'SCRX'   2    0.20000       10.000       165.00      0.40000E-01
          0.0000       5.0000       0.0000       0.0000    /
   3359 'IEESGO' 2    0.10000E-01   0.0000      0.15000      0.30000
          8.0000      0.40000       0.0000      0.70000      0.43000
          1.0000       0.0000    /
   3359 'GENROU' 3     4.7500      0.50000E-01   1.0000      0.50000E-01
          4.8200       0.0000       2.1300       2.0300      0.31000
         0.40300      0.19370      0.14531      0.10890      0.37795    /
   3359 'STAB2A' 3     1.0000       4.5000       0.0000       2.0000
         0.68000       1.0000      0.10000E-01  0.30000E-01/
   3359 'SCRX'   3    0.20000       10.000       165.00      0.40000E-01
          0.0000       5.0000       0.0000       0.0000    /
   3359 'IEESGO' 3    0.10000E-01   0.0000      0.15000      0.30000
          8.0000      0.40000       0.0000      0.70000      0.43000
          1.0000       0.0000    /
   3359 'GENROU' 4     4.7500      0.50000E-01   1.0000      0.50000E-01
          4.8200       0.0000       2.1300       2.0300      0.31000
         0.40300      0.19370      0.14531      0.10890      0.37795    /
   3359 'STAB2A' 4     1.0000       4.5000       0.0000       2.0000
         0.68000       1.0000      0.10000E-01  0.30000E-01/
   3359 'SCRX'   4    0.20000       10.000       165.00      0.40000E-01
          0.0000       5.0000       0.0000       0.0000    /
   3359 'IEESGO' 4    0.10000E-01   0.0000      0.15000      0.30000
          8.0000      0.40000       0.0000      0.70000      0.43000
          1.0000       0.0000    /
   3359 'GENROU' 5     4.7500      0.50000E-01   1.0000      0.50000E-01
          4.8200       0.0000       2.1300       2.0300      0.31000
         0.40300      0.19370      0.14531      0.10890      0.37795    /
   3359 'STAB2A' 5     1.0000       4.5000       0.0000       2.0000
         0.68000       1.0000      0.10000E-01  0.30000E-01/
   3359 'SCRX'   5    0.20000       10.000       165.00      0.40000E-01
          0.0000       5.0000       0.0000       0.0000    /
   3359 'IEESGO' 5    0.10000E-01   0.0000      0.15000      0.30000
          8.0000      0.40000       0.0000      0.70000      0.43000
          1.0000       0.0000    /
   3359 'GENROU' 6     4.7500      0.50000E-01   1.0000      0.50000E-01
          4.8200       0.0000       2.1300       2.0300      0.31000
         0.40300      0.19370      0.14531      0.10890      0.37795    /
   3359 'STAB2A' 6     1.0000       4.5000       0.0000       2.0000
         0.68000       1.0000      0.10000E-01  0.30000E-01/
   3359 'SCRX'   6    0.20000       10.000       165.00      0.40000E-01
          0.0000       5.0000       0.0000       0.0000    /
   3359 'IEESGO' 6    0.10000E-01   0.0000      0.15000      0.30000
          8.0000      0.40000       0.0000      0.70000      0.43000
          1.0000       0.0000    /
   5100 'GENSAL' 1     4.9629      0.50000E-01  0.15000       3.9871
          0.0000       1.1332      0.68315      0.24302      0.15135
         0.13405      0.10000      0.30000    /
   5100 'SEXS'   1    0.50000E-01   100.00       200.00      0.50000
          0.0000       4.0000    /
   5100 'HYGOV'  1    0.60000E-01  0.40000       5.0000      0.50000E-01
         0.20000      0.20000       1.0000       0.0000       1.0000
          1.1000      0.50000      0.10000      /
   5100 'GENSAL' 2     4.9629      0.50000E-01  0.15000       3.9871
          0.0000       1.1332      0.68320      0.24300      0.15140
         0.13410      0.10000      0.30000    /
   5100 'SEXS'   2    0.50000E-01   100.00       200.00      0.50000
          0.0000       4.0000    /
   5100 'HYGOV'  2    0.60000E-01  0.40000       5.0000      0.50000E-01
         0.20000      0.20000       1.0000       0.0000       1.0000
          1.1000      0.50000      0.10000      /
   5300 'GENSAL' 1     6.4000      0.50000E-01  0.15000       3.5000
          0.0000       1.1400      0.84000      0.34000      0.26000
         0.20000      0.10000      0.30000    /
   5300 'STAB2A' 1     1.0000       4.5000       0.0000       2.0000
         0.55000       1.0000      0.10000E-01  0.30000E-01/
   5300 'SCRX'   1    0.25385       13.000       61.000      0.50000E-01
          0.0000       4.0000       0.0000       0.0000    /
   5300 'HYGOV'  1    0.60000E-01  0.40000       5.0000      0.50000E-01
         0.20000      0.20000       1.0000       0.0000       1.0000
          1.1000      0.50000      0.10000      /
   5300 'GENSAL' 2     6.4000      0.50000E-01  0.15000       3.5000
          0.0000       1.1400      0.84000      0.34000      0.26000
         0.20000      0.10000      0.30000    /
   5300 'STAB2A' 2     1.0000       4.5000       0.0000       2.0000
         0.55000       1.0000      0.10000E-01  0.30000E-01/
   5300 'SCRX'   2    0.25385       13.000       61.000      0.50000E-01
          0.0000       4.0000       0.0000       0.0000    /
   5300 'HYGOV'  2    0.60000E-01  0.40000       5.0000      0.50000E-01
         0.20000      0.20000       1.0000       0.0000       1.0000
          1.1000      0.50000      0.10000      /
   5300 'GENSAL' 3     6.4000      0.50000E-01  0.15000       3.5000
          0.0000       1.1400      0.84000      0.34000      0.26000
         0.20000      0.10000      0.30000    /
   5300 'STAB2A' 3     1.0000       4.5000       0.0000       2.0000
         0.55000       1.0000      0.10000E-01  0.30000E-01/
   5300 'SCRX'   3    0.25385       13.000       61.000      0.50000E-01
          0.0000       4.0000       0.0000       0.0000    /
   5300 'HYGOV'  3    0.60000E-01  0.40000       5.0000      0.50000E-01
         0.20000      0.20000       1.0000       0.0000       1.0000
          1.1000      0.50000      0.10000      /
   5300 'GENSAL' 4     6.4000      0.50000E-01  0.15000       3.5000
          0.0000       1.1400      0.84000      0.34000      0.26000
         0.20000      0.10000      0.30000    /
   5300 'STAB2A' 4     1.0000       4.5000       0.0000       2.0000
         0.55000       1.0000      0.10000E-01  0.30000E-01/
   5300 'SCRX'   4    0.25385       13.000       61.000      0.50000E-01
          0.0000       4.0000       0.0000       0.0000    /
   5300 'HYGOV'  4    0.60000E-01  0.40000       5.0000      0.50000E-01
         0.20000      0.20000       1.0000       0.0000       1.0000
          1.1000      0.50000      0.10000      /
   5300 'GENSAL' 5     6.4000      0.50000E-01  0.15000       3.5000
          0.0000       1.1400      0.84000      0.34000      0.26000
         0.20000      0.10000      0.30000    /
   5300 'STAB2A' 5     1.0000       4.5000       0.0000       2.0000
         0.55000       1.0000      0.10000E-01  0.30000E-01/
   5300 'SCRX'   5    0.25385       13.000       61.000      0.50000E-01
          0.0000       4.0000       0.0000       0.0000    /
   5300 'HYGOV'  5    0.60000E-01  0.40000       5.0000      0.50000E-01
         0.20000      0.20000       1.0000       0.0000       1.0000
          1.1000      0.50000      0.10000      /
   5300 'GENSAL' 6     6.4000      0.50000E-01  0.15000       3.5000
          0.0000       1.1400      0.84000      0.34000      0.26000
         0.20000      0.10000      0.30000    /
   5300 'STAB2A' 6     1.0000       4.5000       0.0000       2.0000
         0.55000       1.0000      0.10000E-01  0.30000E-01/
   5300 'SCRX'   6    0.25385       13.000       61.000      0.50000E-01
          0.0000       4.0000       0.0000       0.0000    /
   5300 'HYGOV'  6    0.60000E-01  0.40000       5.0000      0.50000E-01
         0.20000      0.20000       1.0000       0.0000       1.0000
          1.1000      0.50000      0.10000      /
   5400 'GENSAL' 1     6.5000      0.50000E-01  0.15000       4.1000
          0.0000       1.0200      0.63000      0.25000      0.16000
         0.13000      0.10000      0.30000    /
   5400 'SEXS'   1    0.50000E-01   100.00       200.00      0.50000
          0.0000       4.0000    /
   5400 'HYGOV'  1    0.60000E-01  0.40000       5.0000      0.50000E-01
         0.20000      0.20000       1.0000       0.0000       1.0000
          1.1000      0.50000      0.10000      /
   5400 'GENSAL' 2     6.5000      0.50000E-01  0.15000       4.1000
          0.0000       1.0200      0.63000      0.25000      0.16000
         0.13000      0.10000      0.30000    /
   5400 'SEXS'   2    0.50000E-01   100.00       200.00      0.50000
          0.0000       4.0000    /
   5400 'HYGOV'  2    0.60000E-01  0.40000       5.0000      0.50000E-01
         0.20000      0.20000       1.0000       0.0000       1.0000
          1.1000      0.50000      0.10000      /
   5500 'GENSAL' 1     7.1980      0.50000E-01  0.15000       3.0000
          0.0000       1.2364      0.65567      0.37415      0.22825
         0.16194      0.10000      0.30000    /
   5500 'SEXS'   1    0.50000E-01   100.00       200.00      0.50000
          0.0000       4.0000    /
   5500 'HYGOV'  1    0.60000E-01  0.40000       5.0000      0.50000E-01
         0.20000      0.20000       1.0000       0.0000       1.0000
          1.1000      0.50000      0.10000      /
   5500 'GENSAL' 2     7.1980      0.50000E-01  0.15000       3.0000
          0.0000       1.2364      0.65570      0.37410      0.22830
         0.16190      0.10000      0.30000    /
   5500 'SEXS'   2    0.50000E-01   100.00       200.00      0.50000
          0.0000       4.0000    /
   5500 'HYGOV'  2    0.60000E-01  0.40000       5.0000      0.50000E-01
         0.20000      0.20000       1.0000       0.0000       1.0000
          1.1000      0.50000      0.10000      /
   5600 'GENSAL' 1     7.8500      0.50000E-01  0.15000       3.5000
          0.0000       1.0000      0.51325      0.38000      0.28000
         0.21000      0.10000      0.30000    /
   5600 'SCRX'   1    0.25385       13.000       61.000      0.50000E-01
          0.0000       4.0000       0.0000       0.0000    /
   5600 'HYGOV'  1    0.60000E-01  0.30000       5.0000      0.50000E-01
         0.20000      0.20000       1.0000       0.0000       1.0000
          1.1000      0.50000      0.10000      /
   5600 'GENSAL' 2     7.8500      0.50000E-01  0.15000       3.5000
          0.0000       1.0000      0.51325      0.38000      0.28000
         0.21000      0.10000      0.30000    /
   5600 'SCRX'   2    0.25385       13.000       61.000      0.50000E-01
          0.0000       4.0000       0.0000       0.0000    /
   5600 'HYGOV'  2    0.60000E-01  0.30000       5.0000      0.50000E-01
         0.20000      0.20000       1.0000       0.0000       1.0000
          1.1000      0.50000      0.10000      /
   5600 'GENSAL' 3     7.8500      0.50000E-01  0.15000       3.5000
          0.0000       1.0000      0.51325      0.38000      0.28000
         0.21000      0.10000      0.30000    /
   5600 'SCRX'   3    0.25385       13.000       61.000      0.50000E-01
          0.0000       4.0000       0.0000       0.0000    /
   5600 'HYGOV'  3    0.60000E-01  0.30000       5.0000      0.50000E-01
         0.20000      0.20000       1.0000       0.0000       1.0000
          1.1000      0.50000      0.10000      /
   5600 'GENSAL' 4     7.8500      0.50000E-01  0.15000       3.5000
          0.0000       1.0000      0.51325      0.38000      0.28000
         0.21000      0.10000      0.30000    /
   5600 'SCRX'   4    0.25385       13.000       61.000      0.50000E-01
          0.0000       4.0000       0.0000       0.0000    /
   5600 'HYGOV'  4    0.60000E-01  0.30000       5.0000      0.50000E-01
         0.20000      0.20000       1.0000       0.0000       1.0000
          1.1000      0.50000      0.10000      /
   6000 'GENSAL' 1     9.7000      0.50000E-01  0.15000       3.5000
          0.0000       1.2800      0.94000      0.37000      0.28000
         0.20000      0.10000      0.30000    /
   6000 'SEXS'   1     1.0000      0.10000       20.000      0.10000
         -4.0000       4.0000    /
   6000 'HYGOV'  1    0.60000E-01  0.30000       5.0000      0.50000E-01
         0.20000      0.20000       1.0000       0.0000       1.0000
          1.1000      0.50000      0.10000      /
   6000 'GENSAL' 2     9.7000      0.50000E-01  0.15000       3.5000
          0.0000       1.2800      0.94000      0.37000      0.28000
         0.20000      0.10000      0.30000    /
   6000 'SEXS'   2     1.0000      0.10000       20.000      0.10000
         -4.0000       4.0000    /
   6000 'HYGOV'  2    0.60000E-01  0.30000       5.0000      0.50000E-01
         0.20000      0.20000       1.0000       0.0000       1.0000
          1.1000      0.50000      0.10000      /
   6000 'GENSAL' 3     9.7000      0.50000E-01  0.15000       3.5000
          0.0000       1.2800      0.94000      0.37000      0.28000
         0.20000      0.10000      0.30000    /
   6000 'SEXS'   3     1.0000      0.10000       20.000      0.10000
         -4.0000       4.0000    /
   6000 'HYGOV'  3    0.60000E-01  0.30000       5.0000      0.50000E-01
         0.20000      0.20000       1.0000       0.0000       1.0000
          1.1000      0.50000      0.10000      /
   6000 'GENSAL' 4     9.7000      0.50000E-01  0.15000       3.5000
          0.0000       1.2800      0.94000      0.37000      0.28000
         0.20000      0.10000      0.30000    /
   6000 'SEXS'   4     1.0000      0.10000       20.000      0.10000
         -4.0000       4.0000    /
   6000 'HYGOV'  4    0.60000E-01  0.30000       5.0000      0.50000E-01
         0.20000      0.20000       1.0000       0.0000       1.0000
          1.1000      0.50000      0.10000      /
   6100 'GENSAL' 1     9.9000      0.50000E-01  0.15000       3.0000
          0.0000       1.2000      0.73000      0.37000      0.18000
         0.15000      0.10000      0.30000    /
   6100 'STAB2A' 1     1.0000       4.5000       0.0000       2.0000
         0.55000       1.0000      0.10000E-01  0.30000E-01/
   6100 'SCRX'   1    0.25385       13.000       61.000      0.50000E-01
          0.0000       4.0000       0.0000       0.0000    /
   6100 'HYGOV'  1    0.60000E-01  0.40000       5.0000      0.50000E-01
         0.20000      0.20000       1.0000       0.0000       1.0000
          1.1000      0.50000      0.10000      /
   6100 'GENSAL' 2     9.9000      0.50000E-01  0.15000       3.0000
          0.0000       1.2000      0.73000      0.37000      0.18000
         0.15000      0.10000      0.30000    /
   6100 'STAB2A' 2     1.0000       4.5000       0.0000       2.0000
         0.55000       1.0000      0.10000E-01  0.30000E-01/
   6100 'SCRX'   2    0.25385       13.000       61.000      0.50000E-01
          0.0000       4.0000       0.0000       0.0000    /
   6100 'HYGOV'  2    0.60000E-01  0.40000       5.0000      0.50000E-01
         0.20000      0.20000       1.0000       0.0000       1.0000
          1.1000      0.50000      0.10000      /
   6100 'GENSAL' 3     9.9000      0.50000E-01  0.15000       3.0000
          0.0000       1.2000      0.73000      0.37000      0.18000